data_C396H288_2018-02-15_10:39:36
#******************************************
#
# CIF file created by Zeo++
# Zeo++ is an open source package to
# analyze microporous materials
#
#*******************************************

_cell_length_a		29.529   
_cell_length_b		29.529   
_cell_length_c		29.6018   
_cell_angle_alpha		90   
_cell_angle_beta		90   
_cell_angle_gamma		120   

_symmetry_space_group_name_H-M		'P1'
_symmetry_Int_Tables_number		1
_symmetry_cell_setting		Monoclinic

loop_
_symmetry_equiv_pos_as_xyz
'+x,+y,+z'

loop_
_atom_site_label
_atom_site_type_symbol
_atom_site_fract_x
_atom_site_fract_y
_atom_site_fract_z
1	C	0.065947	0.284657	0.007007
2	C	0.038169	0.270764	0.048264
3	H	0.05884	0.281097	0.077913
4	C	0.037327	0.27035	0.299599
5	H	0.056373	0.279875	0.269176
6	C	0.065947	0.284657	0.340341
7	C	0.038169	0.270764	0.381598
8	H	0.05884	0.281097	0.411245
9	C	0.037327	0.27035	0.632934
10	H	0.056373	0.279875	0.60251
11	C	0.065947	0.284657	0.673675
12	C	0.038169	0.270764	0.714932
13	H	0.05884	0.281097	0.744579
14	C	0.037327	0.27035	0.966268
15	H	0.056373	0.279875	0.935841
16	C	0.065946	0.784654	0.007007
17	C	0.038168	0.770765	0.048264
18	H	0.058838	0.781096	0.077913
19	C	0.037327	0.77035	0.299599
20	H	0.056372	0.779872	0.269175
21	C	0.065946	0.784654	0.340341
22	C	0.038168	0.770765	0.381598
23	H	0.058838	0.781096	0.411245
24	C	0.037327	0.77035	0.632934
25	H	0.056372	0.779872	0.60251
26	C	0.065946	0.784654	0.673675
27	C	0.038168	0.770765	0.714932
28	H	0.058838	0.781096	0.744579
29	C	0.037327	0.77035	0.966268
30	H	0.056372	0.779872	0.935841
31	C	0.121143	0.312253	0.006509
32	C	0.149238	0.367577	0.006594
33	C	0.149235	0.285021	0.006597
34	H	0.12919	0.244933	0.006777
35	H	0.129195	0.387623	0.006772
36	C	0.121143	0.312253	0.339841
37	C	0.149238	0.367577	0.339925
38	C	0.149235	0.285021	0.339928
39	H	0.12919	0.244933	0.340111
40	H	0.129195	0.387623	0.340104
41	C	0.121143	0.312253	0.673175
42	C	0.149238	0.367577	0.673259
43	C	0.149235	0.285021	0.673263
44	H	0.12919	0.244933	0.673445
45	H	0.129195	0.387623	0.673438
46	C	0.121143	0.812254	0.006509
47	C	0.149238	0.867578	0.006594
48	C	0.149235	0.785022	0.006597
49	H	0.12919	0.744933	0.006777
50	H	0.129195	0.887623	0.006772
51	C	0.121143	0.812254	0.339841
52	C	0.149238	0.867578	0.339925
53	C	0.149235	0.785022	0.339928
54	H	0.12919	0.744933	0.340111
55	H	0.129195	0.887623	0.340104
56	C	0.121143	0.812254	0.673175
57	C	0.149238	0.867578	0.673259
58	C	0.149235	0.785022	0.673263
59	H	0.12919	0.744933	0.673445
60	H	0.129195	0.887623	0.673438
61	C	0.204562	0.395669	0.006506
62	C	0.204559	0.31225	0.006506
63	C	0.204562	0.395669	0.339837
64	C	0.204559	0.31225	0.339841
65	C	0.204562	0.395669	0.673171
66	C	0.204559	0.31225	0.673171
67	C	0.204562	0.89567	0.006506
68	C	0.204559	0.81225	0.006506
69	C	0.204562	0.89567	0.339837
70	C	0.204559	0.81225	0.339841
71	C	0.204562	0.89567	0.673171
72	C	0.204559	0.81225	0.673171
73	C	0.231791	0.367574	0.006597
74	H	0.27188	0.387618	0.006776
75	C	0.399038	0.2012	0.006462
76	C	0.370934	0.145879	0.006533
77	C	0.315613	0.117775	0.006462
78	C	0.288396	0.145879	0.006512
79	C	0.315614	0.2012	0.006465
80	C	0.370934	0.228417	0.006512
81	H	0.248317	0.12584	0.007123
82	H	0.390974	0.268496	0.007123
83	H	0.390973	0.125839	0.007129
84	C	0.232156	0.284652	0.007006
85	C	0.246044	0.270762	0.048264
86	C	0.27379	0.243021	0.049491
87	C	0.287978	0.228838	0.008036
88	C	0.273995	0.242822	0.300137
89	H	0.235707	0.281097	0.077913
90	C	0.24647	0.270344	0.2996
91	H	0.28378	0.233041	0.269945
92	H	0.236949	0.279868	0.269175
93	C	0.287482	0.229333	0.093886
94	H	0.273946	0.242864	0.122415
95	H	0.329848	0.247123	0.096709
96	H	0.269699	0.186967	0.096709
97	C	0.232161	0.450864	0.007005
98	C	0.246055	0.478643	0.048263
99	C	0.273796	0.03413	0.049489
100	C	0.287975	0.062501	0.008034
101	C	0.273984	0.034534	0.300135
102	H	0.235724	0.457973	0.077911
103	C	0.246461	0.479484	0.299598
104	H	0.283762	0.054099	0.269943
105	H	0.236935	0.46044	0.269174
106	C	0.287484	0.061511	0.093883
107	H	0.273954	0.034446	0.122413
108	H	0.269691	0.086086	0.096707
109	H	0.329849	0.086096	0.096707
110	C	0.482683	0.243019	0.04949
111	C	0.454312	0.228837	0.008034
112	C	0.482279	0.242826	0.300136
113	H	0.462714	0.233045	0.269943
114	C	0.455302	0.229328	0.093884
115	H	0.482367	0.242861	0.122413
116	H	0.430722	0.186962	0.096707
117	H	0.43072	0.247114	0.096707
118	C	0.231791	0.367574	0.339928
119	H	0.27188	0.387618	0.340111
120	C	0.399038	0.2012	0.339793
121	C	0.370934	0.145879	0.339864
122	C	0.315613	0.117775	0.339793
123	C	0.288396	0.145879	0.339844
124	C	0.315614	0.2012	0.339797
125	C	0.370934	0.228417	0.339844
126	H	0.248317	0.12584	0.340455
127	H	0.390974	0.268496	0.340455
128	H	0.390973	0.125839	0.340462
129	C	0.232156	0.284652	0.340341
130	C	0.246044	0.270762	0.381598
131	C	0.27379	0.243021	0.382824
132	C	0.287978	0.228838	0.341371
133	C	0.273995	0.242822	0.633471
134	H	0.235707	0.281097	0.411245
135	C	0.24647	0.270344	0.632934
136	H	0.28378	0.233041	0.603277
137	H	0.236949	0.279868	0.60251
138	C	0.287482	0.229333	0.42722
139	H	0.273946	0.242864	0.455749
140	H	0.329848	0.247123	0.430045
141	H	0.269699	0.186967	0.430041
142	C	0.232161	0.450864	0.340337
143	C	0.246055	0.478643	0.381595
144	C	0.273796	0.03413	0.382821
145	C	0.287975	0.062501	0.341368
146	C	0.273984	0.034534	0.633468
147	H	0.235724	0.457973	0.411245
148	C	0.246461	0.479484	0.632931
149	H	0.283762	0.054099	0.603277
150	H	0.236935	0.46044	0.602507
151	C	0.287484	0.061511	0.427217
152	H	0.273954	0.034446	0.455746
153	H	0.269691	0.086086	0.430041
154	H	0.329849	0.086096	0.430041
155	C	0.482683	0.243019	0.382824
156	C	0.454312	0.228837	0.341368
157	C	0.482279	0.242826	0.633468
158	H	0.462714	0.233045	0.603277
159	C	0.455302	0.229328	0.427217
160	H	0.482367	0.242861	0.455746
161	H	0.430722	0.186962	0.430041
162	H	0.43072	0.247114	0.430041
163	C	0.231791	0.367574	0.673263
164	H	0.27188	0.387618	0.673442
165	C	0.399038	0.2012	0.673128
166	C	0.370934	0.145879	0.673198
167	C	0.315613	0.117775	0.673128
168	C	0.288396	0.145879	0.673178
169	C	0.315614	0.2012	0.673131
170	C	0.370934	0.228417	0.673178
171	H	0.248317	0.12584	0.67379
172	H	0.390974	0.268496	0.67379
173	H	0.390973	0.125839	0.673796
174	C	0.232156	0.284652	0.673675
175	C	0.246044	0.270762	0.714932
176	C	0.27379	0.243021	0.716159
177	C	0.287978	0.228838	0.674702
178	C	0.273995	0.242822	0.966805
179	H	0.235707	0.281097	0.744579
180	C	0.24647	0.270344	0.966268
181	H	0.28378	0.233041	0.936611
182	H	0.236949	0.279868	0.935841
183	C	0.287482	0.229333	0.760551
184	H	0.273946	0.242864	0.789083
185	H	0.329848	0.247123	0.763375
186	H	0.269699	0.186967	0.763375
187	C	0.232161	0.450864	0.673671
188	C	0.246055	0.478643	0.714929
189	C	0.273796	0.03413	0.716155
190	C	0.287975	0.062501	0.674702
191	C	0.273984	0.034534	0.966802
192	H	0.235724	0.457973	0.744579
193	C	0.246461	0.479484	0.966265
194	H	0.283762	0.054099	0.936611
195	H	0.236935	0.46044	0.935841
196	C	0.287484	0.061511	0.760551
197	H	0.273954	0.034446	0.78908
198	H	0.269691	0.086086	0.763372
199	H	0.329849	0.086096	0.763375
200	C	0.482683	0.243019	0.716155
201	C	0.454312	0.228837	0.674702
202	C	0.482279	0.242826	0.966802
203	H	0.462714	0.233045	0.936611
204	C	0.455302	0.229328	0.760551
205	H	0.482367	0.242861	0.78908
206	H	0.430722	0.186962	0.763375
207	H	0.43072	0.247114	0.763375
208	C	0.231791	0.867574	0.006597
209	H	0.27188	0.887619	0.006776
210	C	0.399038	0.701199	0.006462
211	C	0.370933	0.645879	0.006533
212	C	0.315613	0.617775	0.006462
213	C	0.288396	0.645879	0.006512
214	C	0.315613	0.701199	0.006465
215	C	0.370933	0.728415	0.006512
216	H	0.248316	0.625838	0.007123
217	H	0.390974	0.768497	0.007123
218	H	0.390972	0.625838	0.007129
219	C	0.232155	0.78465	0.007006
220	C	0.246043	0.770761	0.048264
221	C	0.273789	0.74302	0.049491
222	C	0.287978	0.728838	0.008036
223	C	0.273994	0.742821	0.300137
224	H	0.235707	0.781096	0.077913
225	C	0.246469	0.770342	0.2996
226	H	0.28378	0.733041	0.269945
227	H	0.236948	0.779868	0.269175
228	C	0.28748	0.72933	0.093886
229	H	0.273947	0.742864	0.122415
230	H	0.329848	0.747122	0.096709
231	H	0.269698	0.686965	0.096709
232	C	0.232161	0.950865	0.007005
233	C	0.246054	0.978641	0.048263
234	C	0.273797	0.534132	0.049489
235	C	0.287975	0.562501	0.008034
236	C	0.273985	0.534534	0.300135
237	H	0.235722	0.957971	0.077912
238	C	0.246462	0.979486	0.299598
239	H	0.283761	0.554098	0.269943
240	H	0.236933	0.960438	0.269174
241	C	0.287484	0.561512	0.093883
242	H	0.273953	0.534444	0.122413
243	H	0.269691	0.586085	0.096707
244	H	0.329849	0.586097	0.096707
245	C	0.482682	0.74302	0.04949
246	C	0.454312	0.728838	0.008034
247	C	0.482279	0.742825	0.300136
248	H	0.462715	0.733045	0.269943
249	C	0.455299	0.729326	0.093884
250	H	0.482365	0.74286	0.122413
251	H	0.430721	0.686961	0.096707
252	H	0.43072	0.747115	0.096707
253	C	0.231791	0.867574	0.339928
254	H	0.27188	0.887619	0.340111
255	C	0.399038	0.701199	0.339793
256	C	0.370933	0.645879	0.339864
257	C	0.315613	0.617775	0.339793
258	C	0.288396	0.645879	0.339844
259	C	0.315613	0.701199	0.339797
260	C	0.370933	0.728415	0.339844
261	H	0.248316	0.625838	0.340455
262	H	0.390974	0.768497	0.340455
263	H	0.390972	0.625838	0.340462
264	C	0.232155	0.78465	0.340341
265	C	0.246043	0.770761	0.381598
266	C	0.273789	0.74302	0.382824
267	C	0.287978	0.728838	0.341371
268	C	0.273994	0.742821	0.633471
269	H	0.235707	0.781096	0.411245
270	C	0.246469	0.770342	0.632934
271	H	0.28378	0.733041	0.603277
272	H	0.236948	0.779868	0.60251
273	C	0.28748	0.72933	0.42722
274	H	0.273947	0.742864	0.455749
275	H	0.329848	0.747122	0.430045
276	H	0.269698	0.686965	0.430041
277	C	0.232161	0.950865	0.340337
278	C	0.246054	0.978641	0.381595
279	C	0.273797	0.534132	0.382821
280	C	0.287975	0.562501	0.341368
281	C	0.273985	0.534534	0.633468
282	H	0.235722	0.957971	0.411245
283	C	0.246462	0.979486	0.632931
284	H	0.283761	0.554098	0.603277
285	H	0.236933	0.960438	0.602507
286	C	0.287484	0.561512	0.427217
287	H	0.273953	0.534444	0.455746
288	H	0.269691	0.586085	0.430041
289	H	0.329849	0.586097	0.430041
290	C	0.482682	0.74302	0.382824
291	C	0.454312	0.728838	0.341368
292	C	0.482279	0.742825	0.633468
293	H	0.462715	0.733045	0.603277
294	C	0.455299	0.729326	0.427217
295	H	0.482365	0.74286	0.455746
296	H	0.430721	0.686961	0.430041
297	H	0.43072	0.747115	0.430041
298	C	0.231791	0.867574	0.673263
299	H	0.27188	0.887619	0.673442
300	C	0.399038	0.701199	0.673128
301	C	0.370933	0.645879	0.673198
302	C	0.315613	0.617775	0.673128
303	C	0.288396	0.645879	0.673178
304	C	0.315613	0.701199	0.673131
305	C	0.370933	0.728415	0.673178
306	H	0.248316	0.625838	0.67379
307	H	0.390974	0.768497	0.67379
308	H	0.390972	0.625838	0.673796
309	C	0.232155	0.78465	0.673675
310	C	0.246043	0.770761	0.714932
311	C	0.273789	0.74302	0.716159
312	C	0.287978	0.728838	0.674702
313	C	0.273994	0.742821	0.966805
314	H	0.235707	0.781096	0.744579
315	C	0.246469	0.770342	0.966268
316	H	0.28378	0.733041	0.936611
317	H	0.236948	0.779868	0.935841
318	C	0.28748	0.72933	0.760551
319	H	0.273947	0.742864	0.789083
320	H	0.329848	0.747122	0.763375
321	H	0.269698	0.686965	0.763375
322	C	0.232161	0.950865	0.673671
323	C	0.246054	0.978641	0.714929
324	C	0.273797	0.534132	0.716155
325	C	0.287975	0.562501	0.674702
326	C	0.273985	0.534534	0.966802
327	H	0.235722	0.957971	0.744579
328	C	0.246462	0.979486	0.966265
329	H	0.283761	0.554098	0.936611
330	H	0.236933	0.960438	0.935841
331	C	0.287484	0.561512	0.760551
332	H	0.273953	0.534444	0.78908
333	H	0.269691	0.586085	0.763372
334	H	0.329849	0.586097	0.763375
335	C	0.482682	0.74302	0.716155
336	C	0.454312	0.728838	0.674702
337	C	0.482279	0.742825	0.966802
338	H	0.462715	0.733045	0.936611
339	C	0.455299	0.729326	0.760551
340	H	0.482365	0.74286	0.78908
341	H	0.430721	0.686961	0.763375
342	H	0.43072	0.747115	0.763375
343	C	0.621144	0.312253	0.006509
344	C	0.64924	0.367577	0.006594
345	C	0.704563	0.395669	0.006506
346	C	0.731791	0.367574	0.006597
347	C	0.704559	0.31225	0.006506
348	C	0.649236	0.285021	0.006597
349	H	0.771881	0.387618	0.006776
350	H	0.629189	0.244933	0.006777
351	H	0.629193	0.387623	0.006772
352	C	0.899039	0.2012	0.006462
353	C	0.870935	0.145879	0.006533
354	C	0.815615	0.117775	0.006462
355	C	0.788395	0.145879	0.006512
356	C	0.815612	0.2012	0.006465
357	C	0.870936	0.228417	0.006512
358	H	0.748317	0.12584	0.007123
359	H	0.890975	0.268496	0.007123
360	H	0.890973	0.125839	0.007129
361	C	0.732156	0.284652	0.007006
362	C	0.746045	0.270762	0.048264
363	C	0.773791	0.243021	0.049491
364	C	0.787977	0.228838	0.008036
365	C	0.773997	0.242822	0.300137
366	H	0.735709	0.281097	0.077913
367	C	0.746469	0.270344	0.2996
368	H	0.78378	0.233041	0.269945
369	H	0.73695	0.279868	0.269175
370	C	0.787483	0.229333	0.093886
371	H	0.773946	0.242864	0.122415
372	H	0.82985	0.247123	0.096709
373	H	0.7697	0.186967	0.096709
374	C	0.732161	0.450864	0.007005
375	C	0.746054	0.478643	0.048263
376	C	0.773796	0.03413	0.049489
377	C	0.787975	0.062501	0.008034
378	C	0.773984	0.034534	0.300135
379	H	0.735726	0.457973	0.077911
380	C	0.746461	0.479484	0.299598
381	H	0.783763	0.054099	0.269943
382	H	0.736936	0.46044	0.269174
383	C	0.787483	0.061511	0.093883
384	H	0.773953	0.034446	0.122413
385	H	0.769691	0.086086	0.096707
386	H	0.829851	0.086096	0.096707
387	C	0.565949	0.284657	0.007007
388	C	0.538169	0.270764	0.048264
389	C	0.982683	0.243019	0.04949
390	C	0.954312	0.228837	0.008034
391	C	0.982282	0.242826	0.300136
392	H	0.558839	0.281097	0.077913
393	C	0.537329	0.27035	0.299599
394	H	0.962714	0.233045	0.269943
395	H	0.556372	0.279875	0.269176
396	C	0.955302	0.229328	0.093884
397	H	0.982367	0.242861	0.122413
398	H	0.930722	0.186962	0.096707
399	H	0.930719	0.247114	0.096707
400	C	0.621144	0.312253	0.339841
401	C	0.64924	0.367577	0.339925
402	C	0.704563	0.395669	0.339837
403	C	0.731791	0.367574	0.339928
404	C	0.704559	0.31225	0.339841
405	C	0.649236	0.285021	0.339928
406	H	0.771881	0.387618	0.340111
407	H	0.629189	0.244933	0.340111
408	H	0.629193	0.387623	0.340104
409	C	0.899039	0.2012	0.339793
410	C	0.870935	0.145879	0.339864
411	C	0.815615	0.117775	0.339793
412	C	0.788395	0.145879	0.339844
413	C	0.815612	0.2012	0.339797
414	C	0.870936	0.228417	0.339844
415	H	0.748317	0.12584	0.340455
416	H	0.890975	0.268496	0.340455
417	H	0.890973	0.125839	0.340462
418	C	0.732156	0.284652	0.340341
419	C	0.746045	0.270762	0.381598
420	C	0.773791	0.243021	0.382824
421	C	0.787977	0.228838	0.341371
422	C	0.773997	0.242822	0.633471
423	H	0.735709	0.281097	0.411245
424	C	0.746469	0.270344	0.632934
425	H	0.78378	0.233041	0.603277
426	H	0.73695	0.279868	0.60251
427	C	0.787483	0.229333	0.42722
428	H	0.773946	0.242864	0.455749
429	H	0.82985	0.247123	0.430045
430	H	0.7697	0.186967	0.430041
431	C	0.732161	0.450864	0.340337
432	C	0.746054	0.478643	0.381595
433	C	0.773796	0.03413	0.382821
434	C	0.787975	0.062501	0.341368
435	C	0.773984	0.034534	0.633468
436	H	0.735726	0.457973	0.411245
437	C	0.746461	0.479484	0.632931
438	H	0.783763	0.054099	0.603277
439	H	0.736936	0.46044	0.602507
440	C	0.787483	0.061511	0.427217
441	H	0.773953	0.034446	0.455746
442	H	0.769691	0.086086	0.430041
443	H	0.829851	0.086096	0.430041
444	C	0.565949	0.284657	0.340341
445	C	0.538169	0.270764	0.381598
446	C	0.982683	0.243019	0.382824
447	C	0.954312	0.228837	0.341368
448	C	0.982282	0.242826	0.633468
449	H	0.558839	0.281097	0.411245
450	C	0.537329	0.27035	0.632934
451	H	0.962714	0.233045	0.603277
452	H	0.556372	0.279875	0.60251
453	C	0.955302	0.229328	0.427217
454	H	0.982367	0.242861	0.455746
455	H	0.930722	0.186962	0.430041
456	H	0.930719	0.247114	0.430041
457	C	0.621144	0.312253	0.673175
458	C	0.64924	0.367577	0.673259
459	C	0.704563	0.395669	0.673171
460	C	0.731791	0.367574	0.673263
461	C	0.704559	0.31225	0.673171
462	C	0.649236	0.285021	0.673263
463	H	0.771881	0.387618	0.673442
464	H	0.629189	0.244933	0.673445
465	H	0.629193	0.387623	0.673438
466	C	0.899039	0.2012	0.673128
467	C	0.870935	0.145879	0.673198
468	C	0.815615	0.117775	0.673128
469	C	0.788395	0.145879	0.673178
470	C	0.815612	0.2012	0.673131
471	C	0.870936	0.228417	0.673178
472	H	0.748317	0.12584	0.67379
473	H	0.890975	0.268496	0.67379
474	H	0.890973	0.125839	0.673796
475	C	0.732156	0.284652	0.673675
476	C	0.746045	0.270762	0.714932
477	C	0.773791	0.243021	0.716159
478	C	0.787977	0.228838	0.674702
479	C	0.773997	0.242822	0.966805
480	H	0.735709	0.281097	0.744579
481	C	0.746469	0.270344	0.966268
482	H	0.78378	0.233041	0.936611
483	H	0.73695	0.279868	0.935841
484	C	0.787483	0.229333	0.760551
485	H	0.773946	0.242864	0.789083
486	H	0.82985	0.247123	0.763375
487	H	0.7697	0.186967	0.763375
488	C	0.732161	0.450864	0.673671
489	C	0.746054	0.478643	0.714929
490	C	0.773796	0.03413	0.716155
491	C	0.787975	0.062501	0.674702
492	C	0.773984	0.034534	0.966802
493	H	0.735726	0.457973	0.744579
494	C	0.746461	0.479484	0.966265
495	H	0.783763	0.054099	0.936611
496	H	0.736936	0.46044	0.935841
497	C	0.787483	0.061511	0.760551
498	H	0.773953	0.034446	0.78908
499	H	0.769691	0.086086	0.763372
500	H	0.829851	0.086096	0.763375
501	C	0.565949	0.284657	0.673675
502	C	0.538169	0.270764	0.714932
503	C	0.982683	0.243019	0.716155
504	C	0.954312	0.228837	0.674702
505	C	0.982282	0.242826	0.966802
506	H	0.558839	0.281097	0.744579
507	C	0.537329	0.27035	0.966268
508	H	0.962714	0.233045	0.936611
509	H	0.556372	0.279875	0.935841
510	C	0.955302	0.229328	0.760551
511	H	0.982367	0.242861	0.78908
512	H	0.930722	0.186962	0.763375
513	H	0.930719	0.247114	0.763375
514	C	0.621143	0.812254	0.006509
515	C	0.649239	0.867578	0.006594
516	C	0.704563	0.89567	0.006506
517	C	0.731791	0.867574	0.006597
518	C	0.704559	0.81225	0.006506
519	C	0.649236	0.785022	0.006597
520	H	0.77188	0.887619	0.006776
521	H	0.62919	0.744933	0.006777
522	H	0.629195	0.887623	0.006772
523	C	0.899037	0.701199	0.006462
524	C	0.870933	0.645879	0.006533
525	C	0.815613	0.617775	0.006462
526	C	0.788397	0.645879	0.006512
527	C	0.815614	0.701199	0.006465
528	C	0.870933	0.728415	0.006512
529	H	0.748315	0.625838	0.007123
530	H	0.890974	0.768497	0.007123
531	H	0.890974	0.625838	0.007129
532	C	0.732154	0.78465	0.007006
533	C	0.746043	0.770761	0.048264
534	C	0.773789	0.74302	0.049491
535	C	0.787979	0.728838	0.008036
536	C	0.773994	0.742821	0.300137
537	H	0.735707	0.781096	0.077913
538	C	0.74647	0.770342	0.2996
539	H	0.783782	0.733041	0.269945
540	H	0.736949	0.779868	0.269175
541	C	0.78748	0.72933	0.093886
542	H	0.773948	0.742864	0.122415
543	H	0.829848	0.747122	0.096709
544	H	0.769697	0.686965	0.096709
545	C	0.732162	0.950865	0.007005
546	C	0.746054	0.978641	0.048263
547	C	0.773798	0.534132	0.049489
548	C	0.787976	0.562501	0.008034
549	C	0.773986	0.534534	0.300135
550	H	0.735723	0.957971	0.077912
551	C	0.746462	0.979486	0.299598
552	H	0.783761	0.554098	0.269943
553	H	0.736934	0.960438	0.269174
554	C	0.787485	0.561512	0.093883
555	H	0.773955	0.534444	0.122413
556	H	0.769693	0.586085	0.096707
557	H	0.829849	0.586097	0.096707
558	C	0.565946	0.784654	0.007007
559	C	0.53817	0.770765	0.048264
560	C	0.982682	0.74302	0.04949
561	C	0.954313	0.728838	0.008034
562	C	0.98228	0.742825	0.300136
563	H	0.558839	0.781096	0.077913
564	C	0.537328	0.77035	0.299599
565	H	0.962716	0.733045	0.269943
566	H	0.556372	0.779872	0.269175
567	C	0.955299	0.729326	0.093884
568	H	0.982365	0.74286	0.122413
569	H	0.93072	0.686961	0.096707
570	H	0.930721	0.747115	0.096707
571	C	0.621143	0.812254	0.339841
572	C	0.649239	0.867578	0.339925
573	C	0.704563	0.89567	0.339837
574	C	0.731791	0.867574	0.339928
575	C	0.704559	0.81225	0.339841
576	C	0.649236	0.785022	0.339928
577	H	0.77188	0.887619	0.340111
578	H	0.62919	0.744933	0.340111
579	H	0.629195	0.887623	0.340104
580	C	0.899037	0.701199	0.339793
581	C	0.870933	0.645879	0.339864
582	C	0.815613	0.617775	0.339793
583	C	0.788397	0.645879	0.339844
584	C	0.815614	0.701199	0.339797
585	C	0.870933	0.728415	0.339844
586	H	0.748315	0.625838	0.340455
587	H	0.890974	0.768497	0.340455
588	H	0.890974	0.625838	0.340462
589	C	0.732154	0.78465	0.340341
590	C	0.746043	0.770761	0.381598
591	C	0.773789	0.74302	0.382824
592	C	0.787979	0.728838	0.341371
593	C	0.773994	0.742821	0.633471
594	H	0.735707	0.781096	0.411245
595	C	0.74647	0.770342	0.632934
596	H	0.783782	0.733041	0.603277
597	H	0.736949	0.779868	0.60251
598	C	0.78748	0.72933	0.42722
599	H	0.773948	0.742864	0.455749
600	H	0.829848	0.747122	0.430045
601	H	0.769697	0.686965	0.430041
602	C	0.732162	0.950865	0.340337
603	C	0.746054	0.978641	0.381595
604	C	0.773798	0.534132	0.382821
605	C	0.787976	0.562501	0.341368
606	C	0.773986	0.534534	0.633468
607	H	0.735723	0.957971	0.411245
608	C	0.746462	0.979486	0.632931
609	H	0.783761	0.554098	0.603277
610	H	0.736934	0.960438	0.602507
611	C	0.787485	0.561512	0.427217
612	H	0.773955	0.534444	0.455746
613	H	0.769693	0.586085	0.430041
614	H	0.829849	0.586097	0.430041
615	C	0.565946	0.784654	0.340341
616	C	0.53817	0.770765	0.381598
617	C	0.982682	0.74302	0.382824
618	C	0.954313	0.728838	0.341368
619	C	0.98228	0.742825	0.633468
620	H	0.558839	0.781096	0.411245
621	C	0.537328	0.77035	0.632934
622	H	0.962716	0.733045	0.603277
623	H	0.556372	0.779872	0.60251
624	C	0.955299	0.729326	0.427217
625	H	0.982365	0.74286	0.455746
626	H	0.93072	0.686961	0.430041
627	H	0.930721	0.747115	0.430041
628	C	0.621143	0.812254	0.673175
629	C	0.649239	0.867578	0.673259
630	C	0.704563	0.89567	0.673171
631	C	0.731791	0.867574	0.673263
632	C	0.704559	0.81225	0.673171
633	C	0.649236	0.785022	0.673263
634	H	0.77188	0.887619	0.673442
635	H	0.62919	0.744933	0.673445
636	H	0.629195	0.887623	0.673438
637	C	0.899037	0.701199	0.673128
638	C	0.870933	0.645879	0.673198
639	C	0.815613	0.617775	0.673128
640	C	0.788397	0.645879	0.673178
641	C	0.815614	0.701199	0.673131
642	C	0.870933	0.728415	0.673178
643	H	0.748315	0.625838	0.67379
644	H	0.890974	0.768497	0.67379
645	H	0.890974	0.625838	0.673796
646	C	0.732154	0.78465	0.673675
647	C	0.746043	0.770761	0.714932
648	C	0.773789	0.74302	0.716159
649	C	0.787979	0.728838	0.674702
650	C	0.773994	0.742821	0.966805
651	H	0.735707	0.781096	0.744579
652	C	0.74647	0.770342	0.966268
653	H	0.783782	0.733041	0.936611
654	H	0.736949	0.779868	0.935841
655	C	0.78748	0.72933	0.760551
656	H	0.773948	0.742864	0.789083
657	H	0.829848	0.747122	0.763375
658	H	0.769697	0.686965	0.763375
659	C	0.732162	0.950865	0.673671
660	C	0.746054	0.978641	0.714929
661	C	0.773798	0.534132	0.716155
662	C	0.787976	0.562501	0.674702
663	C	0.773986	0.534534	0.966802
664	H	0.735723	0.957971	0.744579
665	C	0.746462	0.979486	0.966265
666	H	0.783761	0.554098	0.936611
667	H	0.736934	0.960438	0.935841
668	C	0.787485	0.561512	0.760551
669	H	0.773955	0.534444	0.78908
670	H	0.769693	0.586085	0.763372
671	H	0.829849	0.586097	0.763375
672	C	0.565946	0.784654	0.673675
673	C	0.53817	0.770765	0.714932
674	C	0.982682	0.74302	0.716155
675	C	0.954313	0.728838	0.674702
676	C	0.98228	0.742825	0.966802
677	H	0.558839	0.781096	0.744579
678	C	0.537328	0.77035	0.966268
679	H	0.962716	0.733045	0.936611
680	H	0.556372	0.779872	0.935841
681	C	0.955299	0.729326	0.760551
682	H	0.982365	0.74286	0.78908
683	H	0.93072	0.686961	0.763375
684	H	0.930721	0.747115	0.763375
