data_C174H114N36_2018-02-15_10:48:11
#******************************************
#
# CIF file created by Zeo++
# Zeo++ is an open source package to
# analyze microporous materials
#
#*******************************************

_cell_length_a		25.7623   
_cell_length_b		25.7602   
_cell_length_c		29.5368   
_cell_angle_alpha		90   
_cell_angle_beta		90   
_cell_angle_gamma		90.03   

_symmetry_space_group_name_H-M		'P1'
_symmetry_Int_Tables_number		1
_symmetry_cell_setting		Monoclinic

loop_
_symmetry_equiv_pos_as_xyz
'+x,+y,+z'

loop_
_atom_site_label
_atom_site_type_symbol
_atom_site_fract_x
_atom_site_fract_y
_atom_site_fract_z
1	C	0.105412	0.142432	0.021506
2	C	0.143365	0.104567	0.02067
3	C	0.119208	0.05598	0.020855
4	N	0.067495	0.066483	0.021486
5	C	0.056864	0.118177	0.021689
6	C	0.008212	0.144717	0.022178
7	C	0.959095	0.11928	0.022385
8	N	0.948906	0.06765	0.022252
9	C	0.897313	0.057322	0.022235
10	C	0.872807	0.105685	0.022552
11	C	0.91068	0.143667	0.022315
12	C	0.871983	0.008134	0.022073
13	C	0.898624	0.959549	0.021643
14	N	0.950345	0.949056	0.021614
15	C	0.960985	0.897379	0.020567
16	C	0.912452	0.873101	0.020241
17	C	0.874482	0.910962	0.020609
18	C	0.009633	0.870858	0.020022
19	C	0.058759	0.896261	0.020091
20	N	0.068935	0.947883	0.020611
21	C	0.120519	0.958209	0.019921
22	C	0.145034	0.90986	0.019129
23	C	0.107156	0.871875	0.018954
24	C	0.145829	0.007398	0.02005
25	C	0.20158	0.007852	0.018097
26	C	0.227636	0.998877	0.310031
27	C	0.282312	0.998795	0.307891
28	C	0.312838	0.007794	0.01352
29	C	0.286774	0.017017	0.05495
30	C	0.232001	0.016929	0.057205
31	C	0.009234	0.815105	0.018068
32	C	0.999469	0.789143	0.310091
33	C	0.999111	0.734465	0.307898
34	C	0.008631	0.703848	0.013378
35	C	0.018602	0.72983	0.054722
36	C	0.018801	0.784597	0.057031
37	C	0.816172	0.007673	0.021501
38	C	0.787198	0.997017	0.061115
39	C	0.732389	0.997293	0.060407
40	C	0.70458	0.008028	0.020227
41	C	0.733818	0.019113	0.314037
42	C	0.788561	0.018687	0.314598
43	C	0.008583	0.200535	0.021667
44	C	0.998536	0.229619	0.06134
45	C	0.019284	0.228043	0.31464
46	C	0.01995	0.28279	0.314005
47	C	0.009416	0.312129	0.020246
48	C	0.999042	0.284426	0.060558
49	H	0.991568	0.304162	0.089924
50	H	0.990813	0.210981	0.091196
51	H	0.028701	0.300949	0.28422
52	H	0.027028	0.208269	0.285344
53	H	0.112851	0.181408	0.021769
54	H	0.182322	0.112071	0.02008
55	H	0.041126	0.040049	0.02155
56	H	0.976712	0.975484	0.022188
57	H	0.903384	0.182655	0.022173
58	H	0.833804	0.11289	0.022749
59	H	0.805911	0.989172	0.090905
60	H	0.712729	0.98949	0.08975
61	H	0.808257	0.026967	0.285371
62	H	0.715583	0.028186	0.284365
63	H	0.835526	0.903458	0.020085
64	H	0.905049	0.834123	0.019574
65	H	0.184039	0.902686	0.018549
66	H	0.114426	0.832892	0.018079
67	H	0.99254	0.809969	0.2812
68	H	0.991936	0.717028	0.277377
69	H	0.026135	0.802174	0.087445
70	H	0.02591	0.709124	0.08353
71	H	0.21436	0.023567	0.087707
72	H	0.307426	0.023863	0.083877
73	H	0.29981	0.992103	0.277318
74	H	0.206879	0.992196	0.281056
75	N	0.008155	0.652249	0.007928
76	N	0.652384	0.008389	0.022292
77	N	0.009777	0.364329	0.022205
78	N	0.364441	0.00739	0.008138
79	C	0.009166	0.45276	0.332727
80	C	0.008566	0.489044	0.296814
81	C	0.009916	0.543268	0.305114
82	C	0.01177	0.560573	0.017668
83	N	0.01235	0.52279	0.05007
84	H	0.00729	0.475737	0.264141
85	N	0.01112	0.472756	0.041921
86	C	0.009778	0.579284	0.265716
87	H	0.009482	0.558974	0.233227
88	H	0.044417	0.603628	0.266508
89	H	0.97529	0.603787	0.266875
90	C	0.008081	0.39943	0.324404
91	H	0.005427	0.387934	0.292369
92	C	0.014144	0.611974	0.033268
93	H	0.020735	0.617735	0.066045
94	C	0.563909	0.008097	0.332905
95	C	0.527596	0.007766	0.297011
96	C	0.47339	0.009123	0.305341
97	C	0.456114	0.010733	0.01791
98	N	0.493917	0.011074	0.050295
99	H	0.540878	0.006664	0.264324
100	N	0.543943	0.009832	0.042117
101	C	0.437361	0.009236	0.265951
102	H	0.457662	0.009083	0.23345
103	H	0.413103	0.043903	0.266884
104	H	0.412783	0.974774	0.266977
105	C	0.617226	0.007021	0.324529
106	H	0.628668	0.004672	0.292463
107	C	0.404718	0.012996	0.03354
108	H	0.398965	0.019135	0.066385
109	C	0.105412	0.142432	0.354838
110	C	0.143365	0.104567	0.354006
111	C	0.119208	0.05598	0.354188
112	N	0.067495	0.066483	0.354821
113	C	0.056864	0.118177	0.355025
114	C	0.008212	0.144717	0.355512
115	C	0.959095	0.11928	0.355719
116	N	0.948906	0.06765	0.355587
117	C	0.897313	0.057322	0.35557
118	C	0.872807	0.105685	0.355885
119	C	0.91068	0.143667	0.355648
120	C	0.871983	0.008134	0.355407
121	C	0.898624	0.959549	0.354977
122	N	0.950345	0.949056	0.354947
123	C	0.960985	0.897379	0.353901
124	C	0.912452	0.873101	0.353576
125	C	0.874482	0.910962	0.353941
126	C	0.009633	0.870858	0.353355
127	C	0.058759	0.896261	0.353423
128	N	0.068935	0.947883	0.353945
129	C	0.120519	0.958209	0.353254
130	C	0.145034	0.90986	0.352462
131	C	0.107156	0.871875	0.352286
132	C	0.145829	0.007398	0.353383
133	C	0.20158	0.007852	0.351429
134	C	0.227636	0.998877	0.643366
135	C	0.282312	0.998795	0.641223
136	C	0.312838	0.007794	0.346855
137	C	0.286774	0.017017	0.388285
138	C	0.232001	0.016929	0.39054
139	C	0.009234	0.815105	0.351402
140	C	0.999469	0.789143	0.643424
141	C	0.999111	0.734465	0.64123
142	C	0.008631	0.703848	0.346713
143	C	0.018602	0.72983	0.388055
144	C	0.018801	0.784597	0.390364
145	C	0.816172	0.007673	0.354835
146	C	0.787198	0.997017	0.39445
147	C	0.732389	0.997293	0.393739
148	C	0.70458	0.008028	0.353559
149	C	0.733818	0.019113	0.647371
150	C	0.788561	0.018687	0.64793
151	C	0.008583	0.200535	0.355001
152	C	0.998536	0.229619	0.394673
153	C	0.019284	0.228043	0.647974
154	C	0.01995	0.28279	0.647338
155	C	0.009416	0.312129	0.353579
156	C	0.999042	0.284426	0.393891
157	H	0.991568	0.304162	0.423258
158	H	0.990813	0.210981	0.424528
159	H	0.028701	0.300949	0.617554
160	H	0.027028	0.208269	0.618679
161	H	0.112851	0.181408	0.355102
162	H	0.182322	0.112071	0.353413
163	H	0.041126	0.040049	0.354882
164	H	0.976712	0.975484	0.355522
165	H	0.903384	0.182655	0.355505
166	H	0.833804	0.11289	0.356084
167	H	0.805911	0.989172	0.42424
168	H	0.712729	0.98949	0.423082
169	H	0.808257	0.026967	0.618706
170	H	0.715583	0.028186	0.6177
171	H	0.835526	0.903458	0.35342
172	H	0.905049	0.834123	0.352909
173	H	0.184039	0.902686	0.351883
174	H	0.114426	0.832892	0.351412
175	H	0.99254	0.809969	0.614535
176	H	0.991936	0.717028	0.610712
177	H	0.026135	0.802174	0.42078
178	H	0.02591	0.709124	0.416863
179	H	0.21436	0.023567	0.42104
180	H	0.307426	0.023863	0.417211
181	H	0.29981	0.992103	0.610651
182	H	0.206879	0.992196	0.614389
183	N	0.008155	0.652249	0.341262
184	N	0.652384	0.008389	0.355627
185	N	0.009777	0.364329	0.355539
186	N	0.364441	0.00739	0.341472
187	C	0.009166	0.45276	0.66606
188	C	0.008566	0.489044	0.630149
189	C	0.009916	0.543268	0.638447
190	C	0.01177	0.560573	0.351002
191	N	0.01235	0.52279	0.383403
192	H	0.00729	0.475737	0.597474
193	N	0.01112	0.472756	0.375254
194	C	0.009778	0.579284	0.599049
195	H	0.009482	0.558974	0.566561
196	H	0.044417	0.603628	0.599841
197	H	0.97529	0.603787	0.60021
198	C	0.008081	0.39943	0.657738
199	H	0.005427	0.387934	0.625704
200	C	0.014144	0.611974	0.3666
201	H	0.020735	0.617735	0.399379
202	C	0.563909	0.008097	0.666239
203	C	0.527596	0.007766	0.630345
204	C	0.47339	0.009123	0.638674
205	C	0.456114	0.010733	0.351243
206	N	0.493917	0.011074	0.38363
207	H	0.540878	0.006664	0.597657
208	N	0.543943	0.009832	0.37545
209	C	0.437361	0.009236	0.599286
210	H	0.457662	0.009083	0.566784
211	H	0.413103	0.043903	0.600217
212	H	0.412783	0.974774	0.600312
213	C	0.617226	0.007021	0.657863
214	H	0.628668	0.004672	0.625795
215	C	0.404718	0.012996	0.366874
216	H	0.398965	0.019135	0.399718
217	C	0.105412	0.142432	0.688175
218	C	0.143365	0.104567	0.687339
219	C	0.119208	0.05598	0.687521
220	N	0.067495	0.066483	0.688154
221	C	0.056864	0.118177	0.688358
222	C	0.008212	0.144717	0.688845
223	C	0.959095	0.11928	0.689052
224	N	0.948906	0.06765	0.68892
225	C	0.897313	0.057322	0.688903
226	C	0.872807	0.105685	0.689218
227	C	0.91068	0.143667	0.688984
228	C	0.871983	0.008134	0.68874
229	C	0.898624	0.959549	0.68831
230	N	0.950345	0.949056	0.68828
231	C	0.960985	0.897379	0.687234
232	C	0.912452	0.873101	0.686909
233	C	0.874482	0.910962	0.687278
234	C	0.009633	0.870858	0.686689
235	C	0.058759	0.896261	0.68676
236	N	0.068935	0.947883	0.687278
237	C	0.120519	0.958209	0.686587
238	C	0.145034	0.90986	0.685798
239	C	0.107156	0.871875	0.685622
240	C	0.145829	0.007398	0.686716
241	C	0.20158	0.007852	0.684765
242	C	0.227636	0.998877	0.976699
243	C	0.282312	0.998795	0.97456
244	C	0.312838	0.007794	0.680188
245	C	0.286774	0.017017	0.721618
246	C	0.232001	0.016929	0.723873
247	C	0.009234	0.815105	0.684735
248	C	0.999469	0.789143	0.976757
249	C	0.999111	0.734465	0.974566
250	C	0.008631	0.703848	0.680046
251	C	0.018602	0.72983	0.721388
252	C	0.018801	0.784597	0.723697
253	C	0.816172	0.007673	0.688168
254	C	0.787198	0.997017	0.727783
255	C	0.732389	0.997293	0.727075
256	C	0.70458	0.008028	0.686895
257	C	0.733818	0.019113	0.980705
258	C	0.788561	0.018687	0.981267
259	C	0.008583	0.200535	0.688334
260	C	0.998536	0.229619	0.728006
261	C	0.019284	0.228043	0.981307
262	C	0.01995	0.28279	0.980671
263	C	0.009416	0.312129	0.686912
264	C	0.999042	0.284426	0.727224
265	H	0.991568	0.304162	0.756591
266	H	0.990813	0.210981	0.757864
267	H	0.028701	0.300949	0.950888
268	H	0.027028	0.208269	0.952012
269	H	0.112851	0.181408	0.688435
270	H	0.182322	0.112071	0.686746
271	H	0.041126	0.040049	0.688215
272	H	0.976712	0.975484	0.688855
273	H	0.903384	0.182655	0.688838
274	H	0.833804	0.11289	0.689417
275	H	0.805911	0.989172	0.757573
276	H	0.712729	0.98949	0.756418
277	H	0.808257	0.026967	0.952039
278	H	0.715583	0.028186	0.951033
279	H	0.835526	0.903458	0.686753
280	H	0.905049	0.834123	0.686242
281	H	0.184039	0.902686	0.685216
282	H	0.114426	0.832892	0.684745
283	H	0.99254	0.809969	0.947868
284	H	0.991936	0.717028	0.944045
285	H	0.026135	0.802174	0.754113
286	H	0.02591	0.709124	0.750196
287	H	0.21436	0.023567	0.754374
288	H	0.307426	0.023863	0.750544
289	H	0.29981	0.992103	0.943984
290	H	0.206879	0.992196	0.947722
291	N	0.008155	0.652249	0.674595
292	N	0.652384	0.008389	0.68896
293	N	0.009777	0.364329	0.688872
294	N	0.364441	0.00739	0.674805
295	C	0.009166	0.45276	0.999393
296	C	0.008566	0.489044	0.963482
297	C	0.009916	0.543268	0.97178
298	C	0.01177	0.560573	0.684336
299	N	0.01235	0.52279	0.716739
300	H	0.00729	0.475737	0.930807
301	N	0.01112	0.472756	0.70859
302	C	0.009778	0.579284	0.932382
303	H	0.009482	0.558974	0.899894
304	H	0.044417	0.603628	0.933174
305	H	0.97529	0.603787	0.933543
306	C	0.008081	0.39943	0.991071
307	H	0.005427	0.387934	0.959037
308	C	0.014144	0.611974	0.699936
309	H	0.020735	0.617735	0.732712
310	C	0.563909	0.008097	0.999572
311	C	0.527596	0.007766	0.963678
312	C	0.47339	0.009123	0.972007
313	C	0.456114	0.010733	0.684576
314	N	0.493917	0.011074	0.716963
315	H	0.540878	0.006664	0.93099
316	N	0.543943	0.009832	0.708783
317	C	0.437361	0.009236	0.932619
318	H	0.457662	0.009083	0.900117
319	H	0.413103	0.043903	0.93355
320	H	0.412783	0.974774	0.933645
321	C	0.617226	0.007021	0.991197
322	H	0.628668	0.004672	0.959131
323	C	0.404718	0.012996	0.700207
324	H	0.398965	0.019135	0.733051
