data_C432H144N216_2018-02-15_10:37:16
#******************************************
#
# CIF file created by Zeo++
# Zeo++ is an open source package to
# analyze microporous materials
#
#*******************************************

_cell_length_a		43.5696   
_cell_length_b		43.5697   
_cell_length_c		29.7986   
_cell_angle_alpha		90   
_cell_angle_beta		90   
_cell_angle_gamma		120   

_symmetry_space_group_name_H-M		'P1'
_symmetry_Int_Tables_number		1
_symmetry_cell_setting		Monoclinic

loop_
_symmetry_equiv_pos_as_xyz
'+x,+y,+z'

loop_
_atom_site_label
_atom_site_type_symbol
_atom_site_fract_x
_atom_site_fract_y
_atom_site_fract_z
1	C	0.02378	0.262735	0.335151
2	N	0.043182	0.272437	0.296678
3	C	0.04176	0.271726	0.043637
4	N	0.022359	0.262024	0.082037
5	C	0.02378	0.262735	0.668483
6	N	0.043182	0.272437	0.630012
7	C	0.04176	0.271726	0.37697
8	N	0.022359	0.262024	0.415371
9	C	0.02378	0.262735	0.001817
10	N	0.043182	0.272437	0.963346
11	C	0.04176	0.271726	0.710304
12	N	0.022359	0.262024	0.748705
13	C	0.023778	0.762734	0.335151
14	N	0.043181	0.772436	0.296678
15	C	0.041761	0.771726	0.043637
16	N	0.022358	0.762023	0.082037
17	C	0.023778	0.762734	0.668483
18	N	0.043181	0.772436	0.630012
19	C	0.041761	0.771726	0.37697
20	N	0.022358	0.762023	0.415371
21	C	0.023778	0.762734	0.001817
22	N	0.043181	0.772436	0.963346
23	C	0.041761	0.771726	0.710304
24	N	0.022358	0.762023	0.748705
25	C	0.098338	0.300015	0.003714
26	C	0.079089	0.290389	0.044358
27	H	0.092122	0.296906	0.074504
28	C	0.079208	0.29045	0.296306
29	H	0.092071	0.296882	0.266105
30	C	0.098338	0.300015	0.337049
31	C	0.079089	0.290389	0.377692
32	H	0.092122	0.296906	0.407837
33	C	0.079208	0.29045	0.629639
34	H	0.092071	0.296882	0.59944
35	C	0.098338	0.300015	0.670383
36	C	0.079089	0.290389	0.711026
37	H	0.092122	0.296906	0.741171
38	C	0.079208	0.29045	0.962973
39	H	0.092071	0.296882	0.932774
40	C	0.098338	0.800014	0.003714
41	C	0.07909	0.790391	0.044358
42	H	0.092122	0.796906	0.074504
43	C	0.079206	0.79045	0.296306
44	H	0.092071	0.796882	0.266105
45	C	0.098338	0.800014	0.337049
46	C	0.07909	0.790391	0.377692
47	H	0.092122	0.796906	0.407837
48	C	0.079206	0.79045	0.629639
49	H	0.092071	0.796882	0.59944
50	C	0.098338	0.800014	0.670383
51	C	0.07909	0.790391	0.711026
52	H	0.092122	0.796906	0.741171
53	C	0.079206	0.79045	0.962973
54	H	0.092071	0.796882	0.932774
55	C	0.135608	0.318649	0.003811
56	C	0.135608	0.318649	0.337146
57	C	0.135608	0.318649	0.67048
58	C	0.135608	0.818648	0.003811
59	C	0.135608	0.818648	0.337146
60	C	0.135608	0.818648	0.67048
61	C	0.189796	0.372836	0.003811
62	N	0.153778	0.354668	0.003809
63	N	0.153777	0.3008	0.003809
64	C	0.189796	0.318649	0.003811
65	N	0.207645	0.354666	0.003809
66	C	0.320338	0.133919	0.003492
67	N	0.356356	0.152088	0.003503
68	C	0.374526	0.188107	0.003492
69	N	0.356357	0.205957	0.003502
70	C	0.320339	0.188108	0.003492
71	N	0.302488	0.152089	0.003502
72	C	0.301705	0.206743	0.336814
73	C	0.292107	0.21634	0.296119
74	N	0.274094	0.234352	0.296581
75	C	0.264423	0.244023	0.335102
76	C	0.273446	0.235001	0.043543
77	C	0.292111	0.216336	0.04417
78	H	0.298651	0.209797	0.074285
79	C	0.24571	0.262734	0.335149
80	C	0.208429	0.300012	0.003714
81	C	0.218055	0.290389	0.044357
82	H	0.298516	0.209932	0.265886
83	N	0.236008	0.272434	0.296677
84	C	0.23672	0.271724	0.043636
85	N	0.246421	0.262024	0.082036
86	N	0.263775	0.244671	0.081992
87	H	0.211538	0.296904	0.074504
88	C	0.217995	0.290448	0.296305
89	H	0.211562	0.296877	0.266104
90	C	0.301703	0.09665	0.336814
91	C	0.292106	0.077456	0.296119
92	N	0.274094	0.041431	0.296581
93	C	0.264423	0.022088	0.335102
94	C	0.273445	0.040133	0.043544
95	C	0.29211	0.077464	0.044171
96	H	0.29865	0.090543	0.074285
97	C	0.24571	0.484665	0.33515
98	C	0.208431	0.410106	0.003714
99	C	0.218055	0.429355	0.044357
100	H	0.298515	0.090273	0.265886
101	N	0.236009	0.465263	0.296677
102	C	0.236719	0.466683	0.043637
103	N	0.246421	0.486086	0.082037
104	N	0.263775	0.020793	0.081993
105	H	0.21154	0.416323	0.074504
106	C	0.217997	0.429238	0.296306
107	H	0.211565	0.416374	0.266105
108	C	0.411796	0.20674	0.336814
109	C	0.43099	0.216338	0.296119
110	N	0.467016	0.234351	0.296581
111	C	0.486357	0.244022	0.335103
112	C	0.468311	0.234999	0.043544
113	C	0.430981	0.216333	0.044171
114	H	0.417902	0.209794	0.074286
115	H	0.418172	0.209929	0.265887
116	N	0.487652	0.24467	0.081993
117	C	0.189796	0.372836	0.337146
118	N	0.153778	0.354668	0.337143
119	N	0.153777	0.3008	0.337143
120	C	0.189796	0.318649	0.337146
121	N	0.207645	0.354666	0.337143
122	C	0.320338	0.133919	0.336827
123	N	0.356356	0.152088	0.336837
124	C	0.374526	0.188107	0.336827
125	N	0.356357	0.205957	0.336837
126	C	0.320339	0.188108	0.336827
127	N	0.302488	0.152089	0.336837
128	C	0.301705	0.206743	0.670148
129	C	0.292107	0.21634	0.629452
130	N	0.274094	0.234352	0.629915
131	C	0.264423	0.244023	0.668437
132	C	0.273446	0.235001	0.376876
133	C	0.292111	0.216336	0.377504
134	H	0.298651	0.209797	0.407619
135	C	0.24571	0.262734	0.668483
136	C	0.208429	0.300012	0.337049
137	C	0.218055	0.290389	0.377692
138	H	0.298516	0.209932	0.599219
139	N	0.236008	0.272434	0.630012
140	C	0.23672	0.271724	0.37697
141	N	0.246421	0.262024	0.415371
142	N	0.263775	0.244671	0.415328
143	H	0.211538	0.296904	0.407837
144	C	0.217995	0.290448	0.629639
145	H	0.211562	0.296877	0.599437
146	C	0.301703	0.09665	0.670148
147	C	0.292106	0.077456	0.629452
148	N	0.274094	0.041431	0.629915
149	C	0.264423	0.022088	0.668437
150	C	0.273445	0.040133	0.376876
151	C	0.29211	0.077464	0.377504
152	H	0.29865	0.090543	0.407619
153	C	0.24571	0.484665	0.668483
154	C	0.208431	0.410106	0.337049
155	C	0.218055	0.429355	0.377692
156	H	0.298515	0.090273	0.599219
157	N	0.236009	0.465263	0.630012
158	C	0.236719	0.466683	0.37697
159	N	0.246421	0.486086	0.415371
160	N	0.263775	0.020793	0.415328
161	H	0.21154	0.416323	0.407837
162	C	0.217997	0.429238	0.629639
163	H	0.211565	0.416374	0.59944
164	C	0.411796	0.20674	0.670148
165	C	0.43099	0.216338	0.629452
166	N	0.467016	0.234351	0.629915
167	C	0.486357	0.244022	0.668437
168	C	0.468311	0.234999	0.376876
169	C	0.430981	0.216333	0.377504
170	H	0.417902	0.209794	0.407619
171	H	0.418172	0.209929	0.599222
172	N	0.487652	0.24467	0.415328
173	C	0.189796	0.372836	0.67048
174	N	0.153778	0.354668	0.670477
175	N	0.153777	0.3008	0.670477
176	C	0.189796	0.318649	0.67048
177	N	0.207645	0.354666	0.670477
178	C	0.320338	0.133919	0.670161
179	N	0.356356	0.152088	0.670171
180	C	0.374526	0.188107	0.670161
181	N	0.356357	0.205957	0.670171
182	C	0.320339	0.188108	0.670161
183	N	0.302488	0.152089	0.670171
184	C	0.301705	0.206743	0.003479
185	C	0.292107	0.21634	0.962785
186	N	0.274094	0.234352	0.963249
187	C	0.264423	0.244023	0.00177
188	C	0.273446	0.235001	0.71021
189	C	0.292111	0.216336	0.710838
190	H	0.298651	0.209797	0.740953
191	C	0.24571	0.262734	0.001817
192	C	0.208429	0.300012	0.670383
193	C	0.218055	0.290389	0.711026
194	H	0.298516	0.209932	0.932553
195	N	0.236008	0.272434	0.963346
196	C	0.23672	0.271724	0.710304
197	N	0.246421	0.262024	0.748705
198	N	0.263775	0.244671	0.748658
199	H	0.211538	0.296904	0.741171
200	C	0.217995	0.290448	0.962973
201	H	0.211562	0.296877	0.932771
202	C	0.301703	0.09665	0.00348
203	C	0.292106	0.077456	0.962785
204	N	0.274094	0.041431	0.963249
205	C	0.264423	0.022088	0.00177
206	C	0.273445	0.040133	0.71021
207	C	0.29211	0.077464	0.710838
208	H	0.29865	0.090543	0.740953
209	C	0.24571	0.484665	0.001817
210	C	0.208431	0.410106	0.670383
211	C	0.218055	0.429355	0.711026
212	H	0.298515	0.090273	0.932553
213	N	0.236009	0.465263	0.963346
214	C	0.236719	0.466683	0.710304
215	N	0.246421	0.486086	0.748705
216	N	0.263775	0.020793	0.748662
217	H	0.21154	0.416323	0.741171
218	C	0.217997	0.429238	0.962973
219	H	0.211565	0.416374	0.932771
220	C	0.411796	0.20674	0.00348
221	C	0.43099	0.216338	0.962785
222	N	0.467016	0.234351	0.963249
223	C	0.486357	0.244022	0.00177
224	C	0.468311	0.234999	0.71021
225	C	0.430981	0.216333	0.710838
226	H	0.417902	0.209794	0.740953
227	H	0.418172	0.209929	0.932553
228	N	0.487652	0.24467	0.748662
229	C	0.189796	0.872835	0.003811
230	N	0.153776	0.854668	0.003809
231	N	0.153776	0.800799	0.003809
232	C	0.189795	0.818648	0.003811
233	N	0.207646	0.854668	0.003809
234	C	0.320337	0.633919	0.003492
235	N	0.356356	0.652086	0.003503
236	C	0.374525	0.688105	0.003492
237	N	0.356358	0.705957	0.003502
238	C	0.320339	0.688108	0.003492
239	N	0.302488	0.652089	0.003502
240	C	0.301704	0.706742	0.336814
241	C	0.292106	0.716338	0.296119
242	N	0.274094	0.734352	0.296581
243	C	0.264422	0.744023	0.335102
244	C	0.273445	0.735001	0.043543
245	C	0.292111	0.716336	0.04417
246	H	0.298651	0.709798	0.074285
247	C	0.245709	0.762734	0.335149
248	C	0.208429	0.800012	0.003714
249	C	0.218054	0.790389	0.044357
250	H	0.298515	0.70993	0.265886
251	N	0.236007	0.772433	0.296677
252	C	0.236719	0.771723	0.043636
253	N	0.24642	0.762023	0.082036
254	N	0.263774	0.74467	0.081992
255	H	0.211537	0.796903	0.074504
256	C	0.217995	0.790447	0.296305
257	H	0.211563	0.796879	0.266104
258	C	0.301702	0.596648	0.336814
259	C	0.292106	0.577455	0.296119
260	N	0.274094	0.541431	0.296581
261	C	0.264423	0.522089	0.335102
262	C	0.273444	0.540132	0.043544
263	C	0.292109	0.577463	0.044171
264	H	0.298649	0.590542	0.074285
265	C	0.245711	0.984665	0.33515
266	C	0.208431	0.910105	0.003714
267	C	0.218056	0.929354	0.044357
268	H	0.298514	0.590272	0.265886
269	N	0.23601	0.965262	0.296677
270	C	0.236721	0.966685	0.043637
271	N	0.246421	0.986085	0.082037
272	N	0.263774	0.520793	0.081993
273	H	0.21154	0.916323	0.074504
274	C	0.217997	0.929237	0.296306
275	H	0.211565	0.916373	0.266105
276	C	0.411794	0.706739	0.336814
277	C	0.430989	0.716338	0.296119
278	N	0.467014	0.734349	0.296581
279	C	0.486357	0.744023	0.335103
280	C	0.468311	0.734999	0.043544
281	C	0.430981	0.716333	0.044171
282	H	0.417901	0.709792	0.074286
283	H	0.418173	0.70993	0.265887
284	N	0.487652	0.74467	0.081993
285	C	0.189796	0.872835	0.337146
286	N	0.153776	0.854668	0.337143
287	N	0.153776	0.800799	0.337143
288	C	0.189795	0.818648	0.337146
289	N	0.207646	0.854668	0.337143
290	C	0.320337	0.633919	0.336827
291	N	0.356356	0.652086	0.336837
292	C	0.374525	0.688105	0.336827
293	N	0.356358	0.705957	0.336837
294	C	0.320339	0.688108	0.336827
295	N	0.302488	0.652089	0.336837
296	C	0.301704	0.706742	0.670148
297	C	0.292106	0.716338	0.629452
298	N	0.274094	0.734352	0.629915
299	C	0.264422	0.744023	0.668437
300	C	0.273445	0.735001	0.376876
301	C	0.292111	0.716336	0.377504
302	H	0.298651	0.709798	0.407619
303	C	0.245709	0.762734	0.668483
304	C	0.208429	0.800012	0.337049
305	C	0.218054	0.790389	0.377692
306	H	0.298515	0.70993	0.599219
307	N	0.236007	0.772433	0.630012
308	C	0.236719	0.771723	0.37697
309	N	0.24642	0.762023	0.415371
310	N	0.263774	0.74467	0.415328
311	H	0.211537	0.796903	0.407837
312	C	0.217995	0.790447	0.629639
313	H	0.211563	0.796879	0.599437
314	C	0.301702	0.596648	0.670148
315	C	0.292106	0.577455	0.629452
316	N	0.274094	0.541431	0.629915
317	C	0.264423	0.522089	0.668437
318	C	0.273444	0.540132	0.376876
319	C	0.292109	0.577463	0.377504
320	H	0.298649	0.590542	0.407619
321	C	0.245711	0.984665	0.668483
322	C	0.208431	0.910105	0.337049
323	C	0.218056	0.929354	0.377692
324	H	0.298514	0.590272	0.599219
325	N	0.23601	0.965262	0.630012
326	C	0.236721	0.966685	0.37697
327	N	0.246421	0.986085	0.415371
328	N	0.263774	0.520793	0.415328
329	H	0.21154	0.916323	0.407837
330	C	0.217997	0.929237	0.629639
331	H	0.211565	0.916373	0.59944
332	C	0.411794	0.706739	0.670148
333	C	0.430989	0.716338	0.629452
334	N	0.467014	0.734349	0.629915
335	C	0.486357	0.744023	0.668437
336	C	0.468311	0.734999	0.376876
337	C	0.430981	0.716333	0.377504
338	H	0.417901	0.709792	0.407619
339	H	0.418173	0.70993	0.599222
340	N	0.487652	0.74467	0.415328
341	C	0.189796	0.872835	0.67048
342	N	0.153776	0.854668	0.670477
343	N	0.153776	0.800799	0.670477
344	C	0.189795	0.818648	0.67048
345	N	0.207646	0.854668	0.670477
346	C	0.320337	0.633919	0.670161
347	N	0.356356	0.652086	0.670171
348	C	0.374525	0.688105	0.670161
349	N	0.356358	0.705957	0.670171
350	C	0.320339	0.688108	0.670161
351	N	0.302488	0.652089	0.670171
352	C	0.301704	0.706742	0.003479
353	C	0.292106	0.716338	0.962785
354	N	0.274094	0.734352	0.963249
355	C	0.264422	0.744023	0.00177
356	C	0.273445	0.735001	0.71021
357	C	0.292111	0.716336	0.710838
358	H	0.298651	0.709798	0.740953
359	C	0.245709	0.762734	0.001817
360	C	0.208429	0.800012	0.670383
361	C	0.218054	0.790389	0.711026
362	H	0.298515	0.70993	0.932553
363	N	0.236007	0.772433	0.963346
364	C	0.236719	0.771723	0.710304
365	N	0.24642	0.762023	0.748705
366	N	0.263774	0.74467	0.748658
367	H	0.211537	0.796903	0.741171
368	C	0.217995	0.790447	0.962973
369	H	0.211563	0.796879	0.932771
370	C	0.301702	0.596648	0.00348
371	C	0.292106	0.577455	0.962785
372	N	0.274094	0.541431	0.963249
373	C	0.264423	0.522089	0.00177
374	C	0.273444	0.540132	0.71021
375	C	0.292109	0.577463	0.710838
376	H	0.298649	0.590542	0.740953
377	C	0.245711	0.984665	0.001817
378	C	0.208431	0.910105	0.670383
379	C	0.218056	0.929354	0.711026
380	H	0.298514	0.590272	0.932553
381	N	0.23601	0.965262	0.963346
382	C	0.236721	0.966685	0.710304
383	N	0.246421	0.986085	0.748705
384	N	0.263774	0.520793	0.748662
385	H	0.21154	0.916323	0.741171
386	C	0.217997	0.929237	0.962973
387	H	0.211565	0.916373	0.932771
388	C	0.411794	0.706739	0.00348
389	C	0.430989	0.716338	0.962785
390	N	0.467014	0.734349	0.963249
391	C	0.486357	0.744023	0.00177
392	C	0.468311	0.734999	0.71021
393	C	0.430981	0.716333	0.710838
394	H	0.417901	0.709792	0.740953
395	H	0.418173	0.70993	0.932553
396	N	0.487652	0.74467	0.748662
397	C	0.689796	0.372836	0.003811
398	N	0.653779	0.354668	0.003809
399	C	0.635608	0.318649	0.003811
400	N	0.653778	0.3008	0.003809
401	C	0.689795	0.318649	0.003811
402	N	0.707645	0.354666	0.003809
403	C	0.820338	0.133919	0.003492
404	N	0.856356	0.152088	0.003503
405	C	0.874526	0.188107	0.003492
406	N	0.856359	0.205957	0.003502
407	C	0.82034	0.188108	0.003492
408	N	0.802489	0.152089	0.003502
409	C	0.801705	0.206743	0.336814
410	C	0.792108	0.21634	0.296119
411	N	0.774095	0.234352	0.296581
412	C	0.764423	0.244023	0.335102
413	C	0.773446	0.235001	0.043543
414	C	0.792113	0.216336	0.04417
415	H	0.79865	0.209797	0.074285
416	C	0.745711	0.262734	0.335149
417	C	0.70843	0.300012	0.003714
418	C	0.718055	0.290389	0.044357
419	H	0.798516	0.209932	0.265886
420	N	0.736009	0.272434	0.296677
421	C	0.736721	0.271724	0.043636
422	N	0.74642	0.262024	0.082036
423	N	0.763776	0.244671	0.081992
424	H	0.711539	0.296904	0.074504
425	C	0.717995	0.290448	0.296305
426	H	0.711563	0.296877	0.266104
427	C	0.801703	0.09665	0.336814
428	C	0.792106	0.077456	0.296119
429	N	0.774094	0.041431	0.296581
430	C	0.764423	0.022088	0.335102
431	C	0.773445	0.040133	0.043544
432	C	0.79211	0.077464	0.044171
433	H	0.79865	0.090543	0.074285
434	C	0.745711	0.484665	0.33515
435	C	0.708431	0.410106	0.003714
436	C	0.718056	0.429355	0.044357
437	H	0.798515	0.090273	0.265886
438	N	0.73601	0.465263	0.296677
439	C	0.73672	0.466683	0.043637
440	N	0.746421	0.486086	0.082037
441	N	0.763775	0.020793	0.081993
442	H	0.71154	0.416323	0.074504
443	C	0.717998	0.429238	0.296306
444	H	0.711565	0.416374	0.266105
445	C	0.911796	0.20674	0.336814
446	C	0.93099	0.216338	0.296119
447	N	0.967016	0.234351	0.296581
448	C	0.986357	0.244022	0.335103
449	C	0.968313	0.234999	0.043544
450	C	0.930981	0.216333	0.044171
451	H	0.917902	0.209794	0.074286
452	C	0.523781	0.262735	0.335151
453	C	0.598338	0.300015	0.003714
454	C	0.579089	0.290389	0.044358
455	H	0.918174	0.209929	0.265887
456	N	0.543183	0.272437	0.296678
457	C	0.541761	0.271726	0.043637
458	N	0.522358	0.262024	0.082037
459	N	0.987654	0.24467	0.081993
460	H	0.592123	0.296906	0.074504
461	C	0.579209	0.29045	0.296306
462	H	0.592072	0.296882	0.266105
463	C	0.689796	0.372836	0.337146
464	N	0.653779	0.354668	0.337143
465	C	0.635608	0.318649	0.337146
466	N	0.653778	0.3008	0.337143
467	C	0.689795	0.318649	0.337146
468	N	0.707645	0.354666	0.337143
469	C	0.820338	0.133919	0.336827
470	N	0.856356	0.152088	0.336837
471	C	0.874526	0.188107	0.336827
472	N	0.856359	0.205957	0.336837
473	C	0.82034	0.188108	0.336827
474	N	0.802489	0.152089	0.336837
475	C	0.801705	0.206743	0.670148
476	C	0.792108	0.21634	0.629452
477	N	0.774095	0.234352	0.629915
478	C	0.764423	0.244023	0.668437
479	C	0.773446	0.235001	0.376876
480	C	0.792113	0.216336	0.377504
481	H	0.79865	0.209797	0.407619
482	C	0.745711	0.262734	0.668483
483	C	0.70843	0.300012	0.337049
484	C	0.718055	0.290389	0.377692
485	H	0.798516	0.209932	0.599219
486	N	0.736009	0.272434	0.630012
487	C	0.736721	0.271724	0.37697
488	N	0.74642	0.262024	0.415371
489	N	0.763776	0.244671	0.415328
490	H	0.711539	0.296904	0.407837
491	C	0.717995	0.290448	0.629639
492	H	0.711563	0.296877	0.599437
493	C	0.801703	0.09665	0.670148
494	C	0.792106	0.077456	0.629452
495	N	0.774094	0.041431	0.629915
496	C	0.764423	0.022088	0.668437
497	C	0.773445	0.040133	0.376876
498	C	0.79211	0.077464	0.377504
499	H	0.79865	0.090543	0.407619
500	C	0.745711	0.484665	0.668483
501	C	0.708431	0.410106	0.337049
502	C	0.718056	0.429355	0.377692
503	H	0.798515	0.090273	0.599219
504	N	0.73601	0.465263	0.630012
505	C	0.73672	0.466683	0.37697
506	N	0.746421	0.486086	0.415371
507	N	0.763775	0.020793	0.415328
508	H	0.71154	0.416323	0.407837
509	C	0.717998	0.429238	0.629639
510	H	0.711565	0.416374	0.59944
511	C	0.911796	0.20674	0.670148
512	C	0.93099	0.216338	0.629452
513	N	0.967016	0.234351	0.629915
514	C	0.986357	0.244022	0.668437
515	C	0.968313	0.234999	0.376876
516	C	0.930981	0.216333	0.377504
517	H	0.917902	0.209794	0.407619
518	C	0.523781	0.262735	0.668483
519	C	0.598338	0.300015	0.337049
520	C	0.579089	0.290389	0.377692
521	H	0.918174	0.209929	0.599222
522	N	0.543183	0.272437	0.630012
523	C	0.541761	0.271726	0.37697
524	N	0.522358	0.262024	0.415371
525	N	0.987654	0.24467	0.415328
526	H	0.592123	0.296906	0.407837
527	C	0.579209	0.29045	0.629639
528	H	0.592072	0.296882	0.59944
529	C	0.689796	0.372836	0.67048
530	N	0.653779	0.354668	0.670477
531	C	0.635608	0.318649	0.67048
532	N	0.653778	0.3008	0.670477
533	C	0.689795	0.318649	0.67048
534	N	0.707645	0.354666	0.670477
535	C	0.820338	0.133919	0.670161
536	N	0.856356	0.152088	0.670171
537	C	0.874526	0.188107	0.670161
538	N	0.856359	0.205957	0.670171
539	C	0.82034	0.188108	0.670161
540	N	0.802489	0.152089	0.670171
541	C	0.801705	0.206743	0.003479
542	C	0.792108	0.21634	0.962785
543	N	0.774095	0.234352	0.963249
544	C	0.764423	0.244023	0.00177
545	C	0.773446	0.235001	0.71021
546	C	0.792113	0.216336	0.710838
547	H	0.79865	0.209797	0.740953
548	C	0.745711	0.262734	0.001817
549	C	0.70843	0.300012	0.670383
550	C	0.718055	0.290389	0.711026
551	H	0.798516	0.209932	0.932553
552	N	0.736009	0.272434	0.963346
553	C	0.736721	0.271724	0.710304
554	N	0.74642	0.262024	0.748705
555	N	0.763776	0.244671	0.748658
556	H	0.711539	0.296904	0.741171
557	C	0.717995	0.290448	0.962973
558	H	0.711563	0.296877	0.932771
559	C	0.801703	0.09665	0.00348
560	C	0.792106	0.077456	0.962785
561	N	0.774094	0.041431	0.963249
562	C	0.764423	0.022088	0.00177
563	C	0.773445	0.040133	0.71021
564	C	0.79211	0.077464	0.710838
565	H	0.79865	0.090543	0.740953
566	C	0.745711	0.484665	0.001817
567	C	0.708431	0.410106	0.670383
568	C	0.718056	0.429355	0.711026
569	H	0.798515	0.090273	0.932553
570	N	0.73601	0.465263	0.963346
571	C	0.73672	0.466683	0.710304
572	N	0.746421	0.486086	0.748705
573	N	0.763775	0.020793	0.748662
574	H	0.71154	0.416323	0.741171
575	C	0.717998	0.429238	0.962973
576	H	0.711565	0.416374	0.932771
577	C	0.911796	0.20674	0.00348
578	C	0.93099	0.216338	0.962785
579	N	0.967016	0.234351	0.963249
580	C	0.986357	0.244022	0.00177
581	C	0.968313	0.234999	0.71021
582	C	0.930981	0.216333	0.710838
583	H	0.917902	0.209794	0.740953
584	C	0.523781	0.262735	0.001817
585	C	0.598338	0.300015	0.670383
586	C	0.579089	0.290389	0.711026
587	H	0.918174	0.209929	0.932553
588	N	0.543183	0.272437	0.963346
589	C	0.541761	0.271726	0.710304
590	N	0.522358	0.262024	0.748705
591	N	0.987654	0.24467	0.748662
592	H	0.592123	0.296906	0.741171
593	C	0.579209	0.29045	0.962973
594	H	0.592072	0.296882	0.932774
595	C	0.689796	0.872835	0.003811
596	N	0.653778	0.854668	0.003809
597	C	0.635608	0.818648	0.003811
598	N	0.653776	0.800799	0.003809
599	C	0.689795	0.818648	0.003811
600	N	0.707646	0.854668	0.003809
601	C	0.820338	0.633919	0.003492
602	N	0.856355	0.652086	0.003503
603	C	0.874526	0.688105	0.003492
604	N	0.856357	0.705957	0.003502
605	C	0.82034	0.688108	0.003492
606	N	0.802489	0.652089	0.003502
607	C	0.801704	0.706742	0.336814
608	C	0.792107	0.716338	0.296119
609	N	0.774095	0.734352	0.296581
610	C	0.764423	0.744023	0.335102
611	C	0.773447	0.735001	0.043543
612	C	0.79211	0.716336	0.04417
613	H	0.798651	0.709798	0.074285
614	C	0.74571	0.762734	0.335149
615	C	0.70843	0.800012	0.003714
616	C	0.718055	0.790389	0.044357
617	H	0.798515	0.70993	0.265886
618	N	0.736009	0.772433	0.296677
619	C	0.736719	0.771723	0.043636
620	N	0.74642	0.762023	0.082036
621	N	0.763775	0.74467	0.081992
622	H	0.711537	0.796903	0.074504
623	C	0.717994	0.790447	0.296305
624	H	0.711564	0.796879	0.266104
625	C	0.801703	0.596648	0.336814
626	C	0.792106	0.577455	0.296119
627	N	0.774094	0.541431	0.296581
628	C	0.764423	0.522089	0.335102
629	C	0.773445	0.540132	0.043544
630	C	0.79211	0.577463	0.044171
631	H	0.79865	0.590542	0.074285
632	C	0.745711	0.984665	0.33515
633	C	0.708431	0.910105	0.003714
634	C	0.718056	0.929354	0.044357
635	H	0.798514	0.590272	0.265886
636	N	0.73601	0.965262	0.296677
637	C	0.736721	0.966685	0.043637
638	N	0.746421	0.986085	0.082037
639	N	0.763775	0.520793	0.081993
640	H	0.71154	0.916323	0.074504
641	C	0.717997	0.929237	0.296306
642	H	0.711565	0.916373	0.266105
643	C	0.911796	0.706739	0.336814
644	C	0.930991	0.716338	0.296119
645	N	0.967015	0.734349	0.296581
646	C	0.986357	0.744023	0.335103
647	C	0.968313	0.734999	0.043544
648	C	0.930981	0.716333	0.044171
649	H	0.917901	0.709792	0.074286
650	C	0.52378	0.762734	0.335151
651	C	0.598339	0.800014	0.003714
652	C	0.57909	0.790391	0.044358
653	H	0.918174	0.70993	0.265887
654	N	0.543182	0.772436	0.296678
655	C	0.541761	0.771726	0.043637
656	N	0.522359	0.762023	0.082037
657	N	0.987654	0.74467	0.081993
658	H	0.592122	0.796906	0.074504
659	C	0.579208	0.79045	0.296306
660	H	0.592071	0.796882	0.266105
661	C	0.689796	0.872835	0.337146
662	N	0.653778	0.854668	0.337143
663	C	0.635608	0.818648	0.337146
664	N	0.653776	0.800799	0.337143
665	C	0.689795	0.818648	0.337146
666	N	0.707646	0.854668	0.337143
667	C	0.820338	0.633919	0.336827
668	N	0.856355	0.652086	0.336837
669	C	0.874526	0.688105	0.336827
670	N	0.856357	0.705957	0.336837
671	C	0.82034	0.688108	0.336827
672	N	0.802489	0.652089	0.336837
673	C	0.801704	0.706742	0.670148
674	C	0.792107	0.716338	0.629452
675	N	0.774095	0.734352	0.629915
676	C	0.764423	0.744023	0.668437
677	C	0.773447	0.735001	0.376876
678	C	0.79211	0.716336	0.377504
679	H	0.798651	0.709798	0.407619
680	C	0.74571	0.762734	0.668483
681	C	0.70843	0.800012	0.337049
682	C	0.718055	0.790389	0.377692
683	H	0.798515	0.70993	0.599219
684	N	0.736009	0.772433	0.630012
685	C	0.736719	0.771723	0.37697
686	N	0.74642	0.762023	0.415371
687	N	0.763775	0.74467	0.415328
688	H	0.711537	0.796903	0.407837
689	C	0.717994	0.790447	0.629639
690	H	0.711564	0.796879	0.599437
691	C	0.801703	0.596648	0.670148
692	C	0.792106	0.577455	0.629452
693	N	0.774094	0.541431	0.629915
694	C	0.764423	0.522089	0.668437
695	C	0.773445	0.540132	0.376876
696	C	0.79211	0.577463	0.377504
697	H	0.79865	0.590542	0.407619
698	C	0.745711	0.984665	0.668483
699	C	0.708431	0.910105	0.337049
700	C	0.718056	0.929354	0.377692
701	H	0.798514	0.590272	0.599219
702	N	0.73601	0.965262	0.630012
703	C	0.736721	0.966685	0.37697
704	N	0.746421	0.986085	0.415371
705	N	0.763775	0.520793	0.415328
706	H	0.71154	0.916323	0.407837
707	C	0.717997	0.929237	0.629639
708	H	0.711565	0.916373	0.59944
709	C	0.911796	0.706739	0.670148
710	C	0.930991	0.716338	0.629452
711	N	0.967015	0.734349	0.629915
712	C	0.986357	0.744023	0.668437
713	C	0.968313	0.734999	0.376876
714	C	0.930981	0.716333	0.377504
715	H	0.917901	0.709792	0.407619
716	C	0.52378	0.762734	0.668483
717	C	0.598339	0.800014	0.337049
718	C	0.57909	0.790391	0.377692
719	H	0.918174	0.70993	0.599222
720	N	0.543182	0.772436	0.630012
721	C	0.541761	0.771726	0.37697
722	N	0.522359	0.762023	0.415371
723	N	0.987654	0.74467	0.415328
724	H	0.592122	0.796906	0.407837
725	C	0.579208	0.79045	0.629639
726	H	0.592071	0.796882	0.59944
727	C	0.689796	0.872835	0.67048
728	N	0.653778	0.854668	0.670477
729	C	0.635608	0.818648	0.67048
730	N	0.653776	0.800799	0.670477
731	C	0.689795	0.818648	0.67048
732	N	0.707646	0.854668	0.670477
733	C	0.820338	0.633919	0.670161
734	N	0.856355	0.652086	0.670171
735	C	0.874526	0.688105	0.670161
736	N	0.856357	0.705957	0.670171
737	C	0.82034	0.688108	0.670161
738	N	0.802489	0.652089	0.670171
739	C	0.801704	0.706742	0.003479
740	C	0.792107	0.716338	0.962785
741	N	0.774095	0.734352	0.963249
742	C	0.764423	0.744023	0.00177
743	C	0.773447	0.735001	0.71021
744	C	0.79211	0.716336	0.710838
745	H	0.798651	0.709798	0.740953
746	C	0.74571	0.762734	0.001817
747	C	0.70843	0.800012	0.670383
748	C	0.718055	0.790389	0.711026
749	H	0.798515	0.70993	0.932553
750	N	0.736009	0.772433	0.963346
751	C	0.736719	0.771723	0.710304
752	N	0.74642	0.762023	0.748705
753	N	0.763775	0.74467	0.748658
754	H	0.711537	0.796903	0.741171
755	C	0.717994	0.790447	0.962973
756	H	0.711564	0.796879	0.932771
757	C	0.801703	0.596648	0.00348
758	C	0.792106	0.577455	0.962785
759	N	0.774094	0.541431	0.963249
760	C	0.764423	0.522089	0.00177
761	C	0.773445	0.540132	0.71021
762	C	0.79211	0.577463	0.710838
763	H	0.79865	0.590542	0.740953
764	C	0.745711	0.984665	0.001817
765	C	0.708431	0.910105	0.670383
766	C	0.718056	0.929354	0.711026
767	H	0.798514	0.590272	0.932553
768	N	0.73601	0.965262	0.963346
769	C	0.736721	0.966685	0.710304
770	N	0.746421	0.986085	0.748705
771	N	0.763775	0.520793	0.748662
772	H	0.71154	0.916323	0.741171
773	C	0.717997	0.929237	0.962973
774	H	0.711565	0.916373	0.932771
775	C	0.911796	0.706739	0.00348
776	C	0.930991	0.716338	0.962785
777	N	0.967015	0.734349	0.963249
778	C	0.986357	0.744023	0.00177
779	C	0.968313	0.734999	0.71021
780	C	0.930981	0.716333	0.710838
781	H	0.917901	0.709792	0.740953
782	C	0.52378	0.762734	0.001817
783	C	0.598339	0.800014	0.670383
784	C	0.57909	0.790391	0.711026
785	H	0.918174	0.70993	0.932553
786	N	0.543182	0.772436	0.963346
787	C	0.541761	0.771726	0.710304
788	N	0.522359	0.762023	0.748705
789	N	0.987654	0.74467	0.748662
790	H	0.592122	0.796906	0.741171
791	C	0.579208	0.79045	0.962973
792	H	0.592071	0.796882	0.932774
