data_C252H72N72O36_2018-02-15_10:37:20
#******************************************
#
# CIF file created by Zeo++
# Zeo++ is an open source package to
# analyze microporous materials
#
#*******************************************

_cell_length_a		33.7986   
_cell_length_b		33.8008   
_cell_length_c		29.5638   
_cell_angle_alpha		90   
_cell_angle_beta		90   
_cell_angle_gamma		120.007   

_symmetry_space_group_name_H-M		'P1'
_symmetry_Int_Tables_number		1
_symmetry_cell_setting		Monoclinic

loop_
_symmetry_equiv_pos_as_xyz
'+x,+y,+z'

loop_
_atom_site_label
_atom_site_type_symbol
_atom_site_fract_x
_atom_site_fract_y
_atom_site_fract_z
1	N	0.03075	0.051948	0.007521
2	C	0.05433	0.029044	0.007757
3	N	0.030755	0.982559	0.007517
4	C	0.247509	0.125642	0.337928
5	C	0.199093	0.101434	0.338026
6	C	0.128778	0.066296	0.046388
7	C	0.102561	0.053163	0.339692
8	C	0.126136	0.06493	0.298027
9	N	0.175157	0.089485	0.044197
10	C	0.174542	0.089136	0.296467
11	C	0.199038	0.101365	0.255209
12	C	0.247194	0.125446	0.255101
13	H	0.107688	0.055689	0.268556
14	H	0.113369	0.058606	0.077455
15	O	0.176837	0.090245	0.214986
16	N	0.03075	0.051948	0.340856
17	C	0.05433	0.029044	0.341093
18	N	0.030755	0.982559	0.340852
19	C	0.247509	0.125642	0.671263
20	C	0.199093	0.101434	0.671361
21	C	0.128778	0.066296	0.379721
22	C	0.102561	0.053163	0.673029
23	C	0.126136	0.06493	0.631359
24	N	0.175157	0.089485	0.377532
25	C	0.174542	0.089136	0.6298
26	C	0.199038	0.101365	0.588544
27	C	0.247194	0.125446	0.588435
28	H	0.107688	0.055689	0.601891
29	H	0.113369	0.058606	0.410789
30	O	0.176837	0.090245	0.548319
31	N	0.03075	0.051948	0.674189
32	C	0.05433	0.029044	0.674426
33	N	0.030755	0.982559	0.674185
34	C	0.247509	0.125642	0.004596
35	C	0.199093	0.101434	0.004694
36	C	0.128778	0.066296	0.713057
37	C	0.102561	0.053163	0.006362
38	C	0.126136	0.06493	0.964696
39	N	0.175157	0.089485	0.710865
40	C	0.174542	0.089136	0.963133
41	C	0.199038	0.101365	0.921877
42	C	0.247194	0.125446	0.921768
43	H	0.107688	0.055689	0.935224
44	H	0.113369	0.058606	0.744122
45	O	0.176837	0.090245	0.881652
46	C	0.984263	0.958976	0.007753
47	N	0.961349	0.982546	0.00752
48	C	0.984257	0.02903	0.007757
49	C	0.462157	0.267886	0.006467
50	N	0.415679	0.244617	0.006673
51	C	0.39222	0.197989	0.00671
52	N	0.415651	0.174795	0.006713
53	C	0.462128	0.197982	0.006504
54	N	0.484598	0.244157	0.006768
55	C	0.74546	0.197995	0.006636
56	N	0.768727	0.174792	0.006815
57	C	0.81536	0.197972	0.006744
58	N	0.838557	0.244601	0.006636
59	C	0.815372	0.267886	0.006433
60	N	0.769193	0.244169	0.006801
61	C	0.815368	0.551201	0.006622
62	N	0.838561	0.597674	0.006741
63	C	0.815371	0.621108	0.00673
64	N	0.768739	0.597657	0.006744
65	C	0.745461	0.55118	0.006625
66	N	0.769189	0.528734	0.00691
67	C	0.344015	0.173894	0.339104
68	C	0.318037	0.160924	0.04595
69	N	0.271644	0.137728	0.043989
70	C	0.271853	0.137795	0.296254
71	C	0.320248	0.161992	0.297564
72	H	0.338545	0.171125	0.267998
73	H	0.333625	0.16873	0.076928
74	O	0.26925	0.136455	0.214796
75	C	0.839448	0.173863	0.339127
76	C	0.852377	0.160812	0.045973
77	N	0.875569	0.137619	0.044006
78	C	0.887682	0.125603	0.337943
79	C	0.875558	0.137827	0.296271
80	C	0.851379	0.162034	0.297587
81	H	0.842267	0.171223	0.268023
82	C	0.911881	0.101397	0.338036
83	C	0.946993	0.0662	0.046393
84	C	0.960142	0.053139	0.339696
85	C	0.948398	0.064968	0.298032
86	H	0.844549	0.168568	0.076953
87	N	0.923811	0.089388	0.044206
88	C	0.924198	0.089167	0.296475
89	C	0.911987	0.101455	0.25522
90	C	0.887921	0.125537	0.255117
91	H	0.957648	0.055778	0.268559
92	H	0.95467	0.058465	0.077459
93	O	0.923117	0.090391	0.214995
94	O	0.876931	0.136604	0.214814
95	C	0.839467	0.66931	0.339107
96	C	0.85246	0.695289	0.045953
97	N	0.875646	0.741677	0.043989
98	C	0.887703	0.765807	0.337926
99	C	0.875525	0.741465	0.296253
100	C	0.851336	0.693071	0.297566
101	H	0.842185	0.674773	0.268002
102	C	0.911902	0.814221	0.338023
103	C	0.947055	0.884532	0.046384
104	C	0.960151	0.910746	0.339689
105	C	0.948358	0.887173	0.298023
106	H	0.844676	0.679706	0.076932
107	N	0.923873	0.838157	0.044194
108	C	0.924164	0.838769	0.296463
109	C	0.911913	0.814273	0.255206
110	C	0.88784	0.766118	0.255101
111	H	0.957574	0.905618	0.268551
112	H	0.954764	0.89994	0.077451
113	O	0.922999	0.836469	0.214982
114	O	0.876809	0.744062	0.214797
115	C	0.489722	0.177781	0.008595
116	C	0.510463	0.173955	0.302024
117	N	0.548566	0.170259	0.304473
118	C	0.568566	0.169376	0.010776
119	C	0.549026	0.172593	0.052236
120	C	0.509471	0.176834	0.050391
121	H	0.496907	0.182871	0.079547
122	C	0.61039	0.169382	0.010787
123	C	0.673138	0.17405	0.302091
124	C	0.697662	0.177811	0.00868
125	C	0.676931	0.176864	0.050455
126	H	0.499538	0.17769	0.270862
127	N	0.631312	0.170288	0.304501
128	C	0.633124	0.172605	0.052267
129	C	0.612921	0.174626	0.093471
130	C	0.571227	0.174613	0.093457
131	H	0.695509	0.182887	0.079626
132	H	0.687802	0.177676	0.270946
133	O	0.634014	0.178495	0.133559
134	O	0.553978	0.178478	0.133531
135	C	0.835571	0.315678	0.008375
136	C	0.839391	0.340317	0.301868
137	N	0.843172	0.382149	0.304325
138	C	0.843986	0.402979	0.010638
139	C	0.840656	0.380147	0.052076
140	C	0.836354	0.336328	0.050175
141	H	0.830368	0.317752	0.079345
142	C	0.84401	0.444809	0.010683
143	C	0.839455	0.502964	0.302003
144	C	0.83558	0.523606	0.00861
145	C	0.836485	0.503828	0.050399
146	H	0.835895	0.325762	0.270687
147	N	0.843195	0.464884	0.304404
148	C	0.840695	0.464252	0.052172
149	C	0.838577	0.441957	0.093356
150	C	0.838562	0.400263	0.09331
151	H	0.830332	0.516278	0.07957
152	H	0.835845	0.514002	0.270855
153	O	0.834656	0.459128	0.133453
154	O	0.834596	0.379081	0.133361
155	C	0.697652	0.523572	0.008625
156	C	0.673108	0.502923	0.302024
157	N	0.631306	0.464816	0.30445
158	C	0.610419	0.444758	0.010739
159	C	0.633174	0.464239	0.05222
160	C	0.676979	0.503794	0.050421
161	H	0.695581	0.516326	0.079584
162	C	0.568593	0.402931	0.010711
163	C	0.510511	0.340243	0.301936
164	C	0.489783	0.315693	0.008508
165	C	0.509524	0.336335	0.050325
166	H	0.687789	0.513896	0.270877
167	N	0.548581	0.382067	0.304399
168	C	0.549074	0.380143	0.052171
169	C	0.571295	0.400293	0.093392
170	C	0.612986	0.441987	0.093418
171	H	0.496958	0.317718	0.079473
172	H	0.499473	0.325609	0.27078
173	O	0.554064	0.379152	0.133459
174	O	0.634092	0.459182	0.133506
175	C	0.984263	0.958976	0.341086
176	N	0.961349	0.982546	0.340852
177	C	0.984257	0.02903	0.341093
178	C	0.462157	0.267886	0.3398
179	N	0.415679	0.244617	0.340007
180	C	0.39222	0.197989	0.340044
181	N	0.415651	0.174795	0.340047
182	C	0.462128	0.197982	0.339834
183	N	0.484598	0.244157	0.340101
184	C	0.74546	0.197995	0.339966
185	N	0.768727	0.174792	0.340145
186	C	0.81536	0.197972	0.340078
187	N	0.838557	0.244601	0.33997
188	C	0.815372	0.267886	0.339767
189	N	0.769193	0.244169	0.340135
190	C	0.815368	0.551201	0.339956
191	N	0.838561	0.597674	0.340074
192	C	0.815371	0.621108	0.340061
193	N	0.768739	0.597657	0.340078
194	C	0.745461	0.55118	0.339959
195	N	0.769189	0.528734	0.340244
196	C	0.344015	0.173894	0.672437
197	C	0.318037	0.160924	0.379284
198	N	0.271644	0.137728	0.377323
199	C	0.271853	0.137795	0.629587
200	C	0.320248	0.161992	0.630896
201	H	0.338545	0.171125	0.601333
202	H	0.333625	0.16873	0.410262
203	O	0.26925	0.136455	0.548129
204	C	0.839448	0.173863	0.67246
205	C	0.852377	0.160812	0.379308
206	N	0.875569	0.137619	0.37734
207	C	0.887682	0.125603	0.671276
208	C	0.875558	0.137827	0.629604
209	C	0.851379	0.162034	0.63092
210	H	0.842267	0.171223	0.601357
211	C	0.911881	0.101397	0.671371
212	C	0.946993	0.0662	0.379728
213	C	0.960142	0.053139	0.673029
214	C	0.948398	0.064968	0.631366
215	H	0.844549	0.168568	0.410285
216	N	0.923811	0.089388	0.377539
217	C	0.924198	0.089167	0.62981
218	C	0.911987	0.101455	0.588554
219	C	0.887921	0.125537	0.588449
220	H	0.957648	0.055778	0.601891
221	H	0.95467	0.058465	0.410793
222	O	0.923117	0.090391	0.548329
223	O	0.876931	0.136604	0.548146
224	C	0.839467	0.66931	0.67244
225	C	0.85246	0.695289	0.379288
226	N	0.875646	0.741677	0.377323
227	C	0.887703	0.765807	0.67126
228	C	0.875525	0.741465	0.629587
229	C	0.851336	0.693071	0.630899
230	H	0.842185	0.674773	0.601336
231	C	0.911902	0.814221	0.671358
232	C	0.947055	0.884532	0.379717
233	C	0.960151	0.910746	0.673022
234	C	0.948358	0.887173	0.631356
235	H	0.844676	0.679706	0.410265
236	N	0.923873	0.838157	0.377529
237	C	0.924164	0.838769	0.629797
238	C	0.911913	0.814273	0.58854
239	C	0.88784	0.766118	0.588435
240	H	0.957574	0.905618	0.601884
241	H	0.954764	0.89994	0.410786
242	O	0.922999	0.836469	0.548315
243	O	0.876809	0.744062	0.548129
244	C	0.489722	0.177781	0.341928
245	C	0.510463	0.173955	0.635358
246	N	0.548566	0.170259	0.637807
247	C	0.568566	0.169376	0.34411
248	C	0.549026	0.172593	0.385569
249	C	0.509471	0.176834	0.383726
250	H	0.496907	0.182871	0.41288
251	C	0.61039	0.169382	0.34412
252	C	0.673138	0.17405	0.635425
253	C	0.697662	0.177811	0.342013
254	C	0.676931	0.176864	0.38379
255	H	0.499538	0.17769	0.604194
256	N	0.631312	0.170288	0.637834
257	C	0.633124	0.172605	0.3856
258	C	0.612921	0.174626	0.426805
259	C	0.571227	0.174613	0.426792
260	H	0.695509	0.182887	0.412961
261	H	0.687802	0.177676	0.604279
262	O	0.634014	0.178495	0.466892
263	O	0.553978	0.178478	0.466864
264	C	0.835571	0.315678	0.341708
265	C	0.839391	0.340317	0.635202
266	N	0.843172	0.382149	0.637658
267	C	0.843986	0.402979	0.343971
268	C	0.840656	0.380147	0.38541
269	C	0.836354	0.336328	0.383509
270	H	0.830368	0.317752	0.412677
271	C	0.84401	0.444809	0.344015
272	C	0.839455	0.502964	0.635337
273	C	0.83558	0.523606	0.341945
274	C	0.836485	0.503828	0.383732
275	H	0.835895	0.325762	0.604022
276	N	0.843195	0.464884	0.637739
277	C	0.840695	0.464252	0.385505
278	C	0.838577	0.441957	0.42669
279	C	0.838562	0.400263	0.426643
280	H	0.830332	0.516278	0.412903
281	H	0.835845	0.514002	0.604188
282	O	0.834656	0.459128	0.466787
283	O	0.834596	0.379081	0.466695
284	C	0.697652	0.523572	0.341958
285	C	0.673108	0.502923	0.635358
286	N	0.631306	0.464816	0.637783
287	C	0.610419	0.444758	0.344073
288	C	0.633174	0.464239	0.385552
289	C	0.676979	0.503794	0.383753
290	H	0.695581	0.516326	0.412917
291	C	0.568593	0.402931	0.344045
292	C	0.510511	0.340243	0.63527
293	C	0.489783	0.315693	0.341843
294	C	0.509524	0.336335	0.383658
295	H	0.687789	0.513896	0.604211
296	N	0.548581	0.382067	0.637732
297	C	0.549074	0.380143	0.385505
298	C	0.571295	0.400293	0.426724
299	C	0.612986	0.441987	0.426751
300	H	0.496958	0.317718	0.412809
301	H	0.499473	0.325609	0.604113
302	O	0.554064	0.379152	0.466793
303	O	0.634092	0.459182	0.466841
304	C	0.984263	0.958976	0.674419
305	N	0.961349	0.982546	0.674185
306	C	0.984257	0.02903	0.674426
307	C	0.462157	0.267886	0.673133
308	N	0.415679	0.244617	0.67334
309	C	0.39222	0.197989	0.673377
310	N	0.415651	0.174795	0.67338
311	C	0.462128	0.197982	0.673171
312	N	0.484598	0.244157	0.673435
313	C	0.74546	0.197995	0.673299
314	N	0.768727	0.174792	0.673478
315	C	0.81536	0.197972	0.673411
316	N	0.838557	0.244601	0.673303
317	C	0.815372	0.267886	0.6731
318	N	0.769193	0.244169	0.673468
319	C	0.815368	0.551201	0.673289
320	N	0.838561	0.597674	0.673407
321	C	0.815371	0.621108	0.673394
322	N	0.768739	0.597657	0.673411
323	C	0.745461	0.55118	0.673292
324	N	0.769189	0.528734	0.673577
325	C	0.344015	0.173894	0.00577
326	C	0.318037	0.160924	0.712618
327	N	0.271644	0.137728	0.710656
328	C	0.271853	0.137795	0.96292
329	C	0.320248	0.161992	0.964232
330	H	0.338545	0.171125	0.934666
331	H	0.333625	0.16873	0.743595
332	O	0.26925	0.136455	0.881462
333	C	0.839448	0.173863	0.005797
334	C	0.852377	0.160812	0.712641
335	N	0.875569	0.137619	0.710673
336	C	0.887682	0.125603	0.00461
337	C	0.875558	0.137827	0.962937
338	C	0.851379	0.162034	0.964253
339	H	0.842267	0.171223	0.93469
340	C	0.911881	0.101397	0.004704
341	C	0.946993	0.0662	0.713061
342	C	0.960142	0.053139	0.006365
343	C	0.948398	0.064968	0.964699
344	H	0.844549	0.168568	0.743622
345	N	0.923811	0.089388	0.710872
346	C	0.924198	0.089167	0.963143
347	C	0.911987	0.101455	0.921887
348	C	0.887921	0.125537	0.921785
349	H	0.957648	0.055778	0.935227
350	H	0.95467	0.058465	0.744126
351	O	0.923117	0.090391	0.881662
352	O	0.876931	0.136604	0.881483
353	C	0.839467	0.66931	0.005773
354	C	0.85246	0.695289	0.712621
355	N	0.875646	0.741677	0.710656
356	C	0.887703	0.765807	0.004593
357	C	0.875525	0.741465	0.96292
358	C	0.851336	0.693071	0.964232
359	H	0.842185	0.674773	0.934669
360	C	0.911902	0.814221	0.004691
361	C	0.947055	0.884532	0.71305
362	C	0.960151	0.910746	0.006355
363	C	0.948358	0.887173	0.964689
364	H	0.844676	0.679706	0.743598
365	N	0.923873	0.838157	0.710862
366	C	0.924164	0.838769	0.96313
367	C	0.911913	0.814273	0.921873
368	C	0.88784	0.766118	0.921768
369	H	0.957574	0.905618	0.935217
370	H	0.954764	0.89994	0.744119
371	O	0.922999	0.836469	0.881648
372	O	0.876809	0.744062	0.881462
373	C	0.489722	0.177781	0.675261
374	C	0.510463	0.173955	0.968691
375	N	0.548566	0.170259	0.97114
376	C	0.568566	0.169376	0.677443
377	C	0.549026	0.172593	0.718902
378	C	0.509471	0.176834	0.717059
379	H	0.496907	0.182871	0.746213
380	C	0.61039	0.169382	0.677453
381	C	0.673138	0.17405	0.968758
382	C	0.697662	0.177811	0.675346
383	C	0.676931	0.176864	0.717123
384	H	0.499538	0.17769	0.937531
385	N	0.631312	0.170288	0.971167
386	C	0.633124	0.172605	0.718936
387	C	0.612921	0.174626	0.760138
388	C	0.571227	0.174613	0.760125
389	H	0.695509	0.182887	0.746294
390	H	0.687802	0.177676	0.937612
391	O	0.634014	0.178495	0.800228
392	O	0.553978	0.178478	0.800198
393	C	0.835571	0.315678	0.675041
394	C	0.839391	0.340317	0.968535
395	N	0.843172	0.382149	0.970994
396	C	0.843986	0.402979	0.677304
397	C	0.840656	0.380147	0.718743
398	C	0.836354	0.336328	0.716842
399	H	0.830368	0.317752	0.746013
400	C	0.84401	0.444809	0.677351
401	C	0.839455	0.502964	0.96867
402	C	0.83558	0.523606	0.675278
403	C	0.836485	0.503828	0.717066
404	H	0.835895	0.325762	0.937355
405	N	0.843195	0.464884	0.971072
406	C	0.840695	0.464252	0.718838
407	C	0.838577	0.441957	0.760023
408	C	0.838562	0.400263	0.759976
409	H	0.830332	0.516278	0.746236
410	H	0.835845	0.514002	0.937521
411	O	0.834656	0.459128	0.80012
412	O	0.834596	0.379081	0.800028
413	C	0.697652	0.523572	0.675292
414	C	0.673108	0.502923	0.968691
415	N	0.631306	0.464816	0.971116
416	C	0.610419	0.444758	0.677406
417	C	0.633174	0.464239	0.718889
418	C	0.676979	0.503794	0.717089
419	H	0.695581	0.516326	0.746253
420	C	0.568593	0.402931	0.677379
421	C	0.510511	0.340243	0.968603
422	C	0.489783	0.315693	0.675177
423	C	0.509524	0.336335	0.716991
424	H	0.687789	0.513896	0.937544
425	N	0.548581	0.382067	0.971065
426	C	0.549074	0.380143	0.718838
427	C	0.571295	0.400293	0.760061
428	C	0.612986	0.441987	0.760084
429	H	0.496958	0.317718	0.746142
430	H	0.499473	0.325609	0.937446
431	O	0.554064	0.379152	0.800127
432	O	0.634092	0.459182	0.800174
