data_C126H126N72_2018-02-15_10:33:18
#******************************************
#
# CIF file created by Zeo++
# Zeo++ is an open source package to
# analyze microporous materials
#
#*******************************************

_cell_length_a		28.9303   
_cell_length_b		28.9303   
_cell_length_c		29.9772   
_cell_angle_alpha		90   
_cell_angle_beta		90   
_cell_angle_gamma		120   

_symmetry_space_group_name_H-M		'P1'
_symmetry_Int_Tables_number		1
_symmetry_cell_setting		Monoclinic

loop_
_symmetry_equiv_pos_as_xyz
'+x,+y,+z'

loop_
_atom_site_label
_atom_site_type_symbol
_atom_site_fract_x
_atom_site_fract_y
_atom_site_fract_z
1	C	0.369843	0.72042	0.968131
2	N	0.386562	0.684111	0.967988
3	C	0.351193	0.630803	0.967494
4	N	0.298161	0.614076	0.967261
5	C	0.280227	0.649455	0.967391
6	N	0.316531	0.702479	0.967895
7	C	0.368517	0.590655	0.300666
8	H	0.350628	0.564711	0.271705
9	H	0.352537	0.566495	0.997494
10	C	0.222769	0.632172	0.967161
11	H	0.214944	0.650816	0.271944
12	H	0.214399	0.647407	0.997677
13	C	0.41	0.777887	0.968565
14	H	0.436479	0.786217	0.273273
15	H	0.433588	0.785738	0.999032
16	C	0.639156	0.279359	0.06118
17	N	0.613492	0.307904	0.061325
18	C	0.641101	0.362141	0.06099
19	N	0.695309	0.387807	0.061043
20	C	0.721939	0.360197	0.060875
21	N	0.693394	0.30599	0.061213
22	C	0.612387	0.392345	0.39525
23	H	0.641351	0.435133	0.396024
24	H	0.588866	0.382142	0.092607
25	C	0.78086	0.388887	0.061752
26	H	0.794663	0.359902	0.39572
27	H	0.794197	0.412283	0.092506
28	C	0.608947	0.220448	0.062374
29	H	0.566163	0.206639	0.396634
30	H	0.619324	0.207326	0.093085
31	C	0.553372	0.411956	0.017147
32	C	0.566039	0.444964	0.312745
33	N	0.541586	0.473917	0.306141
34	C	0.504397	0.473318	0.000936
35	C	0.489921	0.441048	0.039992
36	C	0.51507	0.410423	0.04724
37	H	0.504731	0.385756	0.074371
38	C	0.48285	0.506039	0.322584
39	C	0.454524	0.500595	0.282276
40	C	0.43641	0.537231	0.274654
41	C	0.445473	0.577372	0.305965
42	C	0.474202	0.580832	0.01151
43	N	0.491557	0.545733	0.018278
44	H	0.415833	0.534521	0.246093
45	H	0.482048	0.609458	0.034968
46	H	0.593176	0.447043	0.289847
47	N	0.443032	0.461456	0.251811
48	H	0.452331	0.433944	0.256795
49	H	0.422561	0.458183	0.225042
50	N	0.452304	0.437065	0.069412
51	H	0.442737	0.413947	0.095438
52	H	0.432452	0.455537	0.064689
53	N	0.427499	0.614267	0.299699
54	H	0.442655	0.634092	0.270125
55	N	0.577459	0.380096	0.022173
56	H	0.547761	0.340755	0.022604
57	C	0.588964	0.141548	0.017852
58	C	0.555911	0.121108	0.313488
59	N	0.526893	0.067684	0.307011
60	C	0.52743	0.031164	0.001929
61	C	0.559698	0.049052	0.04098
62	C	0.590442	0.104849	0.048064
63	H	0.615129	0.119242	0.07518
64	C	0.494746	0.976874	0.323638
65	C	0.500371	0.953932	0.283439
66	C	0.46374	0.899183	0.275819
67	C	0.423408	0.868171	0.307012
68	C	0.419776	0.893508	0.012448
69	N	0.454883	0.945962	0.019224
70	H	0.46657	0.881278	0.247328
71	H	0.391003	0.872781	0.035812
72	H	0.5539	0.146108	0.290488
73	N	0.539702	0.981492	0.253106
74	H	0.567076	0.018381	0.257988
75	H	0.542953	0.964322	0.226309
76	N	0.563614	0.01548	0.070511
77	H	0.586684	0.029086	0.096565
78	H	0.544973	0.977126	0.065952
79	N	0.38647	0.813322	0.300683
80	H	0.366895	0.808724	0.270983
81	N	0.620963	0.197504	0.022687
82	H	0.660275	0.207045	0.023055
83	C	0.859452	0.447834	0.016912
84	C	0.879509	0.435512	0.312133
85	N	0.932881	0.459768	0.305363
86	C	0.969687	0.4964	0.000366
87	C	0.952196	0.510509	0.039798
88	C	0.89647	0.485603	0.047197
89	H	0.882364	0.495717	0.074607
90	C	0.023874	0.517833	0.321821
91	C	0.046858	0.547129	0.281927
92	C	0.101568	0.565214	0.274117
93	C	0.132496	0.555176	0.304857
94	C	0.107101	0.525461	0.009977
95	N	0.054699	0.508186	0.016947
96	H	0.119535	0.586552	0.245879
97	H	0.127782	0.516931	0.033027
98	H	0.854271	0.40881	0.289068
99	N	0.019374	0.559622	0.252095
100	H	0.982507	0.550087	0.257143
101	H	0.036567	0.580525	0.225506
102	N	0.986092	0.547545	0.069468
103	H	0.972745	0.556944	0.095723
104	H	0.024399	0.567266	0.064647
105	N	0.187369	0.573241	0.298489
106	H	0.192116	0.558864	0.268526
107	N	0.803551	0.424001	0.022111
108	H	0.794146	0.45386	0.022841
109	C	0.369843	0.72042	0.301465
110	N	0.386562	0.684111	0.301322
111	C	0.351193	0.630803	0.300828
112	N	0.298161	0.614076	0.300594
113	C	0.280227	0.649455	0.300722
114	N	0.316531	0.702479	0.301227
115	C	0.368517	0.590655	0.634001
116	H	0.350628	0.564711	0.605039
117	H	0.352537	0.566495	0.330825
118	C	0.222769	0.632172	0.300493
119	H	0.214944	0.650816	0.605276
120	H	0.214399	0.647407	0.331012
121	C	0.41	0.777887	0.301897
122	H	0.436479	0.786217	0.606607
123	H	0.433588	0.785738	0.332364
124	C	0.639156	0.279359	0.394513
125	N	0.613492	0.307904	0.39466
126	C	0.641101	0.362141	0.394323
127	N	0.695309	0.387807	0.394376
128	C	0.721939	0.360197	0.394209
129	N	0.693394	0.30599	0.394546
130	C	0.612387	0.392345	0.728583
131	H	0.641351	0.435133	0.729357
132	H	0.588866	0.382142	0.42594
133	C	0.78086	0.388887	0.395087
134	H	0.794663	0.359902	0.729053
135	H	0.794197	0.412283	0.42584
136	C	0.608947	0.220448	0.395707
137	H	0.566163	0.206639	0.729967
138	H	0.619324	0.207326	0.42642
139	C	0.553372	0.411956	0.350479
140	C	0.566039	0.444964	0.64608
141	N	0.541586	0.473917	0.639475
142	C	0.504397	0.473318	0.33427
143	C	0.489921	0.441048	0.373327
144	C	0.51507	0.410423	0.380572
145	H	0.504731	0.385756	0.407706
146	C	0.48285	0.506039	0.655918
147	C	0.454524	0.500595	0.615611
148	C	0.43641	0.537231	0.607988
149	C	0.445473	0.577372	0.639299
150	C	0.474202	0.580832	0.344845
151	N	0.491557	0.545733	0.35161
152	H	0.415833	0.534521	0.579426
153	H	0.482048	0.609458	0.368303
154	H	0.593176	0.447043	0.62318
155	N	0.443032	0.461456	0.585144
156	H	0.452331	0.433944	0.590128
157	H	0.422561	0.458183	0.558374
158	N	0.452304	0.437065	0.402746
159	H	0.442737	0.413947	0.428772
160	H	0.432452	0.455537	0.398022
161	N	0.427499	0.614267	0.633034
162	H	0.442655	0.634092	0.603458
163	N	0.577459	0.380096	0.355506
164	H	0.547761	0.340755	0.355937
165	C	0.588964	0.141548	0.351187
166	C	0.555911	0.121108	0.646821
167	N	0.526893	0.067684	0.640346
168	C	0.52743	0.031164	0.335261
169	C	0.559698	0.049052	0.374314
170	C	0.590442	0.104849	0.381396
171	H	0.615129	0.119242	0.408513
172	C	0.494746	0.976874	0.656972
173	C	0.500371	0.953932	0.616771
174	C	0.46374	0.899183	0.609152
175	C	0.423408	0.868171	0.640346
176	C	0.419776	0.893508	0.345782
177	N	0.454883	0.945962	0.352558
178	H	0.46657	0.881278	0.580661
179	H	0.391003	0.872781	0.369147
180	H	0.5539	0.146108	0.62382
181	N	0.539702	0.981492	0.586438
182	H	0.567076	0.018381	0.591322
183	H	0.542953	0.964322	0.559645
184	N	0.563614	0.01548	0.403847
185	H	0.586684	0.029086	0.4299
186	H	0.544973	0.977126	0.399286
187	N	0.38647	0.813322	0.634018
188	H	0.366895	0.808724	0.604315
189	N	0.620963	0.197504	0.35602
190	H	0.660275	0.207045	0.356387
191	C	0.859452	0.447834	0.350246
192	C	0.879509	0.435512	0.645467
193	N	0.932881	0.459768	0.638698
194	C	0.969687	0.4964	0.3337
195	C	0.952196	0.510509	0.37313
196	C	0.89647	0.485603	0.380532
197	H	0.882364	0.495717	0.40794
198	C	0.023874	0.517833	0.655154
199	C	0.046858	0.547129	0.61526
200	C	0.101568	0.565214	0.607451
201	C	0.132496	0.555176	0.638191
202	C	0.107101	0.525461	0.343311
203	N	0.054699	0.508186	0.350283
204	H	0.119535	0.586552	0.579213
205	H	0.127782	0.516931	0.366361
206	H	0.854271	0.40881	0.622402
207	N	0.019374	0.559622	0.585428
208	H	0.982507	0.550087	0.590478
209	H	0.036567	0.580525	0.558841
210	N	0.986092	0.547545	0.402802
211	H	0.972745	0.556944	0.429056
212	H	0.024399	0.567266	0.397982
213	N	0.187369	0.573241	0.631823
214	H	0.192116	0.558864	0.60186
215	N	0.803551	0.424001	0.355446
216	H	0.794146	0.45386	0.356174
217	C	0.369843	0.72042	0.634798
218	N	0.386562	0.684111	0.634655
219	C	0.351193	0.630803	0.634161
220	N	0.298161	0.614076	0.633928
221	C	0.280227	0.649455	0.634055
222	N	0.316531	0.702479	0.634562
223	C	0.368517	0.590655	0.967334
224	H	0.350628	0.564711	0.938372
225	H	0.352537	0.566495	0.664157
226	C	0.222769	0.632172	0.633828
227	H	0.214944	0.650816	0.938612
228	H	0.214399	0.647407	0.664344
229	C	0.41	0.777887	0.635232
230	H	0.436479	0.786217	0.93994
231	H	0.433588	0.785738	0.665699
232	C	0.639156	0.279359	0.727846
233	N	0.613492	0.307904	0.727993
234	C	0.641101	0.362141	0.727659
235	N	0.695309	0.387807	0.727712
236	C	0.721939	0.360197	0.727542
237	N	0.693394	0.30599	0.727879
238	C	0.612387	0.392345	0.061915
239	H	0.641351	0.435133	0.06269
240	H	0.588866	0.382142	0.759276
241	C	0.78086	0.388887	0.72842
242	H	0.794663	0.359902	0.062386
243	H	0.794197	0.412283	0.759173
244	C	0.608947	0.220448	0.72904
245	H	0.566163	0.206639	0.063299
246	H	0.619324	0.207326	0.759753
247	C	0.553372	0.411956	0.683812
248	C	0.566039	0.444964	0.979413
249	N	0.541586	0.473917	0.972808
250	C	0.504397	0.473318	0.667603
251	C	0.489921	0.441048	0.70666
252	C	0.51507	0.410423	0.713908
253	H	0.504731	0.385756	0.741039
254	C	0.48285	0.506039	0.989251
255	C	0.454524	0.500595	0.948944
256	C	0.43641	0.537231	0.941321
257	C	0.445473	0.577372	0.972632
258	C	0.474202	0.580832	0.678178
259	N	0.491557	0.545733	0.684947
260	H	0.415833	0.534521	0.912759
261	H	0.482048	0.609458	0.701636
262	H	0.593176	0.447043	0.956516
263	N	0.443032	0.461456	0.91848
264	H	0.452331	0.433944	0.923464
265	H	0.422561	0.458183	0.89171
266	N	0.452304	0.437065	0.736079
267	H	0.442737	0.413947	0.762105
268	H	0.432452	0.455537	0.731355
269	N	0.427499	0.614267	0.966367
270	H	0.442655	0.634092	0.936791
271	N	0.577459	0.380096	0.688839
272	H	0.547761	0.340755	0.689273
273	C	0.588964	0.141548	0.68452
274	C	0.555911	0.121108	0.980154
275	N	0.526893	0.067684	0.973679
276	C	0.52743	0.031164	0.668597
277	C	0.559698	0.049052	0.707647
278	C	0.590442	0.104849	0.714732
279	H	0.615129	0.119242	0.741846
280	C	0.494746	0.976874	0.990305
281	C	0.500371	0.953932	0.950108
282	C	0.46374	0.899183	0.942485
283	C	0.423408	0.868171	0.973679
284	C	0.419776	0.893508	0.679115
285	N	0.454883	0.945962	0.685891
286	H	0.46657	0.881278	0.913994
287	H	0.391003	0.872781	0.70248
288	H	0.5539	0.146108	0.957156
289	N	0.539702	0.981492	0.919771
290	H	0.567076	0.018381	0.924655
291	H	0.542953	0.964322	0.892978
292	N	0.563614	0.01548	0.737179
293	H	0.586684	0.029086	0.763233
294	H	0.544973	0.977126	0.732619
295	N	0.38647	0.813322	0.967351
296	H	0.366895	0.808724	0.937652
297	N	0.620963	0.197504	0.689353
298	H	0.660275	0.207045	0.689723
299	C	0.859452	0.447834	0.683579
300	C	0.879509	0.435512	0.9788
301	N	0.932881	0.459768	0.972031
302	C	0.969687	0.4964	0.667033
303	C	0.952196	0.510509	0.706466
304	C	0.89647	0.485603	0.713865
305	H	0.882364	0.495717	0.741276
306	C	0.023874	0.517833	0.988487
307	C	0.046858	0.547129	0.948593
308	C	0.101568	0.565214	0.940784
309	C	0.132496	0.555176	0.971524
310	C	0.107101	0.525461	0.676644
311	N	0.054699	0.508186	0.683616
312	H	0.119535	0.586552	0.912546
313	H	0.127782	0.516931	0.699694
314	H	0.854271	0.40881	0.955735
315	N	0.019374	0.559622	0.918764
316	H	0.982507	0.550087	0.923811
317	H	0.036567	0.580525	0.892174
318	N	0.986092	0.547545	0.736135
319	H	0.972745	0.556944	0.762389
320	H	0.024399	0.567266	0.731315
321	N	0.187369	0.573241	0.965156
322	H	0.192116	0.558864	0.935193
323	N	0.803551	0.424001	0.688779
324	H	0.794146	0.45386	0.68951
