data_C180H72N108O72_2018-02-15_10:44:55
#******************************************
#
# CIF file created by Zeo++
# Zeo++ is an open source package to
# analyze microporous materials
#
#*******************************************

_cell_length_a		34.5533   
_cell_length_b		34.5534   
_cell_length_c		28.8752   
_cell_angle_alpha		90   
_cell_angle_beta		90   
_cell_angle_gamma		120   

_symmetry_space_group_name_H-M		'P1'
_symmetry_Int_Tables_number		1
_symmetry_cell_setting		Monoclinic

loop_
_symmetry_equiv_pos_as_xyz
'+x,+y,+z'

loop_
_atom_site_label
_atom_site_type_symbol
_atom_site_fract_x
_atom_site_fract_y
_atom_site_fract_z
1	N	0.495606	0.259448	0.019615
2	C	0.47082	0.214131	0.020471
3	N	0.425349	0.195101	0.021733
4	C	0.405213	0.220607	0.021918
5	C	0.359116	0.202896	0.023255
6	C	0.492821	0.189746	0.021289
7	H	0.475608	0.156756	0.024984
8	H	0.347744	0.224141	0.026876
9	C	0.754976	0.200855	0.019938
10	N	0.781696	0.245879	0.019483
11	N	0.846068	0.240037	0.022085
12	C	0.820582	0.194401	0.022666
13	N	0.775177	0.175706	0.021757
14	C	0.838357	0.166107	0.024801
15	C	0.708924	0.182069	0.01981
16	H	0.689523	0.149051	0.0213
17	H	0.817393	0.133812	0.030885
18	C	0.214345	0.107312	0.05914
19	C	0.261447	0.130809	0.059134
20	H	0.278047	0.139229	0.090097
21	H	0.197774	0.099038	0.090122
22	C	0.933268	0.11637	0.058746
23	C	0.909681	0.139887	0.058555
24	H	0.900881	0.1478	0.089448
25	H	0.941208	0.107847	0.089788
26	C	0.649108	0.198047	0.02003
27	C	0.627289	0.195767	0.062611
28	C	0.58625	0.196042	0.062558
29	N	0.646213	0.195771	0.106214
30	N	0.567497	0.196332	0.106148
31	O	0.683088	0.23073	0.112836
32	O	0.528978	0.1632	0.110894
33	O	0.650999	0.162286	0.11108
34	O	0.56625	0.231625	0.1129
35	N	0.69134	0.207265	0.01912
36	C	0.566941	0.198613	0.019929
37	C	0.477324	0.286189	0.019679
38	N	0.431962	0.266007	0.020997
39	C	0.827016	0.266441	0.02037
40	N	0.28354	0.136747	0.264567
41	N	0.19222	0.09116	0.264568
42	O	0.307121	0.118605	0.260896
43	O	0.16864	0.108774	0.25696
44	O	0.307384	0.177952	0.257147
45	O	0.168442	0.049456	0.260951
46	N	0.905085	0.156931	0.263978
47	N	0.950772	0.111295	0.264328
48	O	0.923314	0.198674	0.260486
49	O	0.933218	0.070144	0.256489
50	O	0.863934	0.139677	0.25627
51	O	0.992505	0.129228	0.261133
52	H	0.646637	0.206007	0.280922
53	H	0.577806	0.206862	0.280861
54	C	0.504599	0.332236	0.019482
55	H	0.490982	0.35165	0.020579
56	C	0.851389	0.312827	0.020989
57	H	0.884391	0.32863	0.024585
58	C	0.840275	0.563827	0.019598
59	N	0.795254	0.545547	0.019577
60	C	0.774726	0.570337	0.020447
61	N	0.801167	0.615805	0.021677
62	C	0.846809	0.635939	0.021819
63	N	0.865461	0.609191	0.020882
64	C	0.875199	0.682036	0.023095
65	C	0.859045	0.536551	0.019379
66	C	0.728342	0.548341	0.021293
67	H	0.712567	0.565551	0.025024
68	H	0.892078	0.550165	0.020445
69	H	0.907836	0.693415	0.026511
70	C	0.924335	0.826809	0.059124
71	C	0.900726	0.779706	0.059138
72	H	0.89254	0.763121	0.090108
73	H	0.932625	0.843394	0.090098
74	C	0.843053	0.460769	0.01994
75	C	0.845311	0.441206	0.06251
76	C	0.845044	0.399895	0.062431
77	N	0.845306	0.460111	0.10612
78	N	0.844739	0.380827	0.106009
79	O	0.810328	0.461992	0.112756
80	O	0.877867	0.37543	0.110748
81	O	0.878764	0.498404	0.11097
82	O	0.809444	0.344288	0.112739
83	N	0.833825	0.493769	0.019082
84	C	0.580381	0.392035	0.020046
85	C	0.599932	0.413854	0.062623
86	C	0.641237	0.454904	0.062562
87	N	0.581016	0.394926	0.106225
88	N	0.660288	0.473652	0.106148
89	O	0.579137	0.358066	0.112852
90	O	0.665661	0.512163	0.110908
91	O	0.542717	0.390084	0.111066
92	O	0.696838	0.474915	0.112876
93	N	0.547381	0.349802	0.019168
94	C	0.842497	0.37805	0.019786
95	C	0.66309	0.47422	0.019925
96	N	0.884604	0.757564	0.264576
97	N	0.93034	0.848885	0.264539
98	O	0.842884	0.733967	0.260905
99	O	0.971534	0.872471	0.256944
100	O	0.901983	0.733733	0.257169
101	O	0.912408	0.872655	0.260894
102	H	0.835159	0.45041	0.280819
103	H	0.834305	0.38072	0.280714
104	H	0.590769	0.394522	0.28093
105	H	0.660443	0.463369	0.280852
106	C	0.069435	0.047251	0.020576
107	N	0.038781	0.06117	0.020499
108	C	0.993873	0.031926	0.020514
109	C	0.114898	0.078581	0.020451
110	C	0.962532	0.046043	0.020288
111	H	0.930265	0.022905	0.020684
112	H	0.12404	0.110848	0.02105
113	C	0.190042	0.09398	0.017263
114	C	0.285724	0.141511	0.350574
115	C	0.261663	0.127888	0.308063
116	C	0.214068	0.104213	0.308067
117	N	0.145496	0.067651	0.018496
118	N	0.330459	0.161058	0.35135
119	C	0.947112	0.105764	0.016979
120	C	0.899465	0.153801	0.349919
121	C	0.913602	0.143718	0.307536
122	C	0.937305	0.119831	0.30772
123	N	0.973453	0.087569	0.018385
124	N	0.879759	0.178852	0.350318
125	C	0.566941	0.198613	0.353261
126	C	0.589409	0.201655	0.311484
127	C	0.629906	0.201278	0.31152
128	N	0.535782	0.210419	0.352101
129	C	0.069435	0.047251	0.353909
130	N	0.038781	0.06117	0.353833
131	C	0.993873	0.031926	0.353847
132	C	0.114898	0.078581	0.353784
133	C	0.962532	0.046043	0.353622
134	H	0.930265	0.022905	0.354016
135	H	0.12404	0.110848	0.354383
136	N	0.495606	0.259448	0.35295
137	C	0.47082	0.214131	0.353805
138	N	0.425349	0.195101	0.355066
139	C	0.405213	0.220607	0.355253
140	C	0.359116	0.202896	0.35659
141	C	0.492821	0.189746	0.354622
142	H	0.475608	0.156756	0.358318
143	H	0.347744	0.224141	0.360209
144	C	0.754976	0.200855	0.353272
145	N	0.781696	0.245879	0.352818
146	N	0.846068	0.240037	0.355419
147	C	0.820582	0.194401	0.356001
148	N	0.775177	0.175706	0.35509
149	C	0.838357	0.166107	0.358134
150	C	0.708924	0.182069	0.353144
151	H	0.689523	0.149051	0.354633
152	H	0.817393	0.133812	0.364219
153	C	0.190042	0.09398	0.350595
154	C	0.214345	0.107312	0.392472
155	C	0.261447	0.130809	0.392468
156	C	0.285724	0.141511	0.683908
157	C	0.261663	0.127888	0.641398
158	H	0.278047	0.139229	0.423429
159	H	0.197774	0.099038	0.423457
160	C	0.214068	0.104213	0.641401
161	N	0.28354	0.136747	0.5979
162	N	0.19222	0.09116	0.5979
163	O	0.307121	0.118605	0.594229
164	O	0.16864	0.108774	0.590295
165	O	0.307384	0.177952	0.590479
166	O	0.168442	0.049456	0.594285
167	N	0.145496	0.067651	0.351828
168	N	0.330459	0.161058	0.684684
169	C	0.947112	0.105764	0.350314
170	C	0.933268	0.11637	0.39208
171	C	0.909681	0.139887	0.39189
172	C	0.899465	0.153801	0.68325
173	C	0.913602	0.143718	0.640868
174	H	0.900881	0.1478	0.422781
175	H	0.941208	0.107847	0.423121
176	C	0.937305	0.119831	0.641051
177	N	0.905085	0.156931	0.597312
178	N	0.950772	0.111295	0.597661
179	O	0.923314	0.198674	0.593821
180	O	0.933218	0.070144	0.589821
181	O	0.863934	0.139677	0.589603
182	O	0.992505	0.129228	0.594465
183	N	0.973453	0.087569	0.351717
184	N	0.879759	0.178852	0.683652
185	C	0.566941	0.198613	0.686596
186	C	0.589409	0.201655	0.644819
187	C	0.629906	0.201278	0.644854
188	C	0.649108	0.198047	0.353362
189	C	0.627289	0.195767	0.395945
190	H	0.646637	0.206007	0.614257
191	H	0.577806	0.206862	0.614195
192	C	0.58625	0.196042	0.395893
193	N	0.646213	0.195771	0.439546
194	N	0.567497	0.196332	0.439481
195	O	0.683088	0.23073	0.446168
196	O	0.528978	0.1632	0.444229
197	O	0.650999	0.162286	0.444412
198	O	0.56625	0.231625	0.446234
199	N	0.535782	0.210419	0.685436
200	N	0.69134	0.207265	0.352455
201	C	0.069435	0.047251	0.687243
202	N	0.038781	0.06117	0.687167
203	C	0.993873	0.031926	0.687181
204	C	0.114898	0.078581	0.687119
205	C	0.962532	0.046043	0.686956
206	H	0.930265	0.022905	0.687351
207	H	0.12404	0.110848	0.687718
208	N	0.495606	0.259448	0.686281
209	C	0.47082	0.214131	0.687139
210	N	0.425349	0.195101	0.6884
211	C	0.405213	0.220607	0.688584
212	C	0.359116	0.202896	0.689924
213	C	0.492821	0.189746	0.687957
214	H	0.475608	0.156756	0.691652
215	H	0.347744	0.224141	0.693543
216	C	0.754976	0.200855	0.686606
217	N	0.781696	0.245879	0.686149
218	N	0.846068	0.240037	0.688753
219	C	0.820582	0.194401	0.689335
220	N	0.775177	0.175706	0.688424
221	C	0.838357	0.166107	0.691468
222	C	0.708924	0.182069	0.686478
223	H	0.689523	0.149051	0.687967
224	H	0.817393	0.133812	0.697553
225	C	0.190042	0.09398	0.683929
226	C	0.214345	0.107312	0.725806
227	C	0.261447	0.130809	0.725802
228	C	0.285724	0.141511	0.017243
229	C	0.261663	0.127888	0.974729
230	H	0.278047	0.139229	0.756763
231	H	0.197774	0.099038	0.756787
232	C	0.214068	0.104213	0.974736
233	N	0.28354	0.136747	0.931235
234	N	0.19222	0.09116	0.931235
235	O	0.307121	0.118605	0.927564
236	O	0.16864	0.108774	0.923626
237	O	0.307384	0.177952	0.923813
238	O	0.168442	0.049456	0.927619
239	N	0.145496	0.067651	0.685162
240	N	0.330459	0.161058	0.018018
241	C	0.947112	0.105764	0.683649
242	C	0.933268	0.11637	0.725414
243	C	0.909681	0.139887	0.725224
244	C	0.899465	0.153801	0.016585
245	C	0.913602	0.143718	0.974202
246	H	0.900881	0.1478	0.756116
247	H	0.941208	0.107847	0.756455
248	C	0.937305	0.119831	0.974386
249	N	0.905085	0.156931	0.930646
250	N	0.950772	0.111295	0.930996
251	O	0.923314	0.198674	0.927152
252	O	0.933218	0.070144	0.923155
253	O	0.863934	0.139677	0.922937
254	O	0.992505	0.129228	0.927799
255	N	0.973453	0.087569	0.685051
256	N	0.879759	0.178852	0.016986
257	C	0.589409	0.201655	0.97815
258	C	0.629906	0.201278	0.978188
259	C	0.649108	0.198047	0.686696
260	C	0.627289	0.195767	0.729279
261	H	0.646637	0.206007	0.947588
262	H	0.577806	0.206862	0.947529
263	C	0.58625	0.196042	0.729224
264	N	0.646213	0.195771	0.772881
265	N	0.567497	0.196332	0.772815
266	O	0.683088	0.23073	0.779502
267	O	0.528978	0.1632	0.77756
268	O	0.650999	0.162286	0.777747
269	O	0.56625	0.231625	0.779568
270	N	0.535782	0.210419	0.018766
271	N	0.69134	0.207265	0.685785
272	C	0.477324	0.286189	0.353012
273	N	0.431962	0.266007	0.354332
274	C	0.827016	0.266441	0.353705
275	C	0.477324	0.286189	0.686346
276	N	0.431962	0.266007	0.687662
277	C	0.827016	0.266441	0.687036
278	N	0.979957	0.987355	0.020499
279	C	0.009197	0.971689	0.020577
280	N	0.053769	0.002343	0.020568
281	C	0.995061	0.926227	0.020481
282	H	0.018184	0.917081	0.021157
283	C	0.935317	0.851094	0.017236
284	C	0.887169	0.755418	0.350588
285	C	0.897618	0.779459	0.308063
286	C	0.921534	0.827053	0.308048
287	N	0.953538	0.89564	0.018444
288	N	0.861981	0.710685	0.351398
289	C	0.842497	0.37805	0.353119
290	C	0.839493	0.397509	0.311348
291	C	0.839871	0.438383	0.31141
292	N	0.830681	0.335085	0.351956
293	C	0.66309	0.47422	0.353258
294	C	0.643648	0.451756	0.311482
295	C	0.602782	0.411254	0.311526
296	N	0.706055	0.505382	0.35208
297	N	0.979957	0.987355	0.353833
298	C	0.009197	0.971689	0.353909
299	N	0.053769	0.002343	0.353902
300	C	0.995061	0.926227	0.353816
301	H	0.018184	0.917081	0.354491
302	C	0.504599	0.332236	0.352815
303	H	0.490982	0.35165	0.353913
304	C	0.851389	0.312827	0.354321
305	H	0.884391	0.32863	0.357919
306	C	0.840275	0.563827	0.352932
307	N	0.795254	0.545547	0.352912
308	C	0.774726	0.570337	0.353781
309	N	0.801167	0.615805	0.35501
310	C	0.846809	0.635939	0.355152
311	N	0.865461	0.609191	0.354214
312	C	0.875199	0.682036	0.356427
313	C	0.859045	0.536551	0.352714
314	C	0.728342	0.548341	0.354626
315	H	0.712567	0.565551	0.358359
316	H	0.892078	0.550165	0.353777
317	H	0.907836	0.693415	0.359845
318	C	0.935317	0.851094	0.350567
319	C	0.924335	0.826809	0.392458
320	C	0.900726	0.779706	0.392472
321	C	0.887169	0.755418	0.683922
322	C	0.897618	0.779459	0.641398
323	H	0.89254	0.763121	0.423443
324	H	0.932625	0.843394	0.423432
325	C	0.921534	0.827053	0.64138
326	N	0.884604	0.757564	0.597911
327	N	0.93034	0.848885	0.597873
328	O	0.842884	0.733967	0.59424
329	O	0.971534	0.872471	0.590278
330	O	0.901983	0.733733	0.590503
331	O	0.912408	0.872655	0.594226
332	N	0.953538	0.89564	0.351779
333	N	0.861981	0.710685	0.684733
334	C	0.842497	0.37805	0.686454
335	C	0.839493	0.397509	0.644681
336	C	0.839871	0.438383	0.644743
337	C	0.843053	0.460769	0.353272
338	C	0.845311	0.441206	0.395845
339	H	0.835159	0.45041	0.614153
340	H	0.834305	0.38072	0.614049
341	C	0.845044	0.399895	0.395765
342	N	0.845306	0.460111	0.439453
343	N	0.844739	0.380827	0.439342
344	O	0.810328	0.461992	0.446088
345	O	0.877867	0.37543	0.44408
346	O	0.878764	0.498404	0.444305
347	O	0.809444	0.344288	0.446071
348	N	0.830681	0.335085	0.68529
349	N	0.833825	0.493769	0.352416
350	C	0.66309	0.47422	0.686592
351	C	0.643648	0.451756	0.644816
352	C	0.602782	0.411254	0.644861
353	C	0.580381	0.392035	0.353379
354	C	0.599932	0.413854	0.395955
355	H	0.590769	0.394522	0.614264
356	H	0.660443	0.463369	0.614184
357	C	0.641237	0.454904	0.395897
358	N	0.581016	0.394926	0.43956
359	N	0.660288	0.473652	0.439481
360	O	0.579137	0.358066	0.446185
361	O	0.665661	0.512163	0.444243
362	O	0.542717	0.390084	0.444398
363	O	0.696838	0.474915	0.44621
364	N	0.706055	0.505382	0.685415
365	N	0.547381	0.349802	0.352503
366	N	0.979957	0.987355	0.687167
367	C	0.009197	0.971689	0.687243
368	N	0.053769	0.002343	0.687236
369	C	0.995061	0.926227	0.68715
370	H	0.018184	0.917081	0.687825
371	C	0.504599	0.332236	0.686149
372	H	0.490982	0.35165	0.687247
373	C	0.851389	0.312827	0.687655
374	H	0.884391	0.32863	0.691254
375	C	0.840275	0.563827	0.686263
376	N	0.795254	0.545547	0.686242
377	C	0.774726	0.570337	0.687115
378	N	0.801167	0.615805	0.688345
379	C	0.846809	0.635939	0.688487
380	N	0.865461	0.609191	0.687548
381	C	0.875199	0.682036	0.689761
382	C	0.859045	0.536551	0.686045
383	C	0.728342	0.548341	0.68796
384	H	0.712567	0.565551	0.69169
385	H	0.892078	0.550165	0.687112
386	H	0.907836	0.693415	0.693179
387	C	0.935317	0.851094	0.683901
388	C	0.924335	0.826809	0.725792
389	C	0.900726	0.779706	0.725806
390	C	0.887169	0.755418	0.017256
391	C	0.897618	0.779459	0.974732
392	H	0.89254	0.763121	0.756777
393	H	0.932625	0.843394	0.756767
394	C	0.921534	0.827053	0.974715
395	N	0.884604	0.757564	0.931242
396	N	0.93034	0.848885	0.931207
397	O	0.842884	0.733967	0.927571
398	O	0.971534	0.872471	0.923612
399	O	0.901983	0.733733	0.923837
400	O	0.912408	0.872655	0.92756
401	N	0.953538	0.89564	0.685113
402	N	0.861981	0.710685	0.018067
403	C	0.839493	0.397509	0.978015
404	C	0.839871	0.438383	0.978078
405	C	0.843053	0.460769	0.686606
406	C	0.845311	0.441206	0.729175
407	H	0.835159	0.45041	0.947487
408	H	0.834305	0.38072	0.94738
409	C	0.845044	0.399895	0.729099
410	N	0.845306	0.460111	0.772787
411	N	0.844739	0.380827	0.772676
412	O	0.810328	0.461992	0.779423
413	O	0.877867	0.37543	0.777414
414	O	0.878764	0.498404	0.777636
415	O	0.809444	0.344288	0.779405
416	N	0.830681	0.335085	0.018621
417	N	0.833825	0.493769	0.685747
418	C	0.643648	0.451756	0.97815
419	C	0.602782	0.411254	0.978192
420	C	0.580381	0.392035	0.686713
421	C	0.599932	0.413854	0.72929
422	H	0.590769	0.394522	0.947598
423	H	0.660443	0.463369	0.947518
424	C	0.641237	0.454904	0.729227
425	N	0.581016	0.394926	0.772891
426	N	0.660288	0.473652	0.772815
427	O	0.579137	0.358066	0.77952
428	O	0.665661	0.512163	0.777573
429	O	0.542717	0.390084	0.777733
430	O	0.696838	0.474915	0.779544
431	N	0.706055	0.505382	0.018749
432	N	0.547381	0.349802	0.685837
