data_C180H117N27O18_2018-02-15_10:45:41
#******************************************
#
# CIF file created by Zeo++
# Zeo++ is an open source package to
# analyze microporous materials
#
#*******************************************

_cell_length_a		29.4965   
_cell_length_b		29.4964   
_cell_length_c		30.0266   
_cell_angle_alpha		90   
_cell_angle_beta		90   
_cell_angle_gamma		120   

_symmetry_space_group_name_H-M		'P1'
_symmetry_Int_Tables_number		1
_symmetry_cell_setting		Monoclinic

loop_
_symmetry_equiv_pos_as_xyz
'+x,+y,+z'

loop_
_atom_site_label
_atom_site_type_symbol
_atom_site_fract_x
_atom_site_fract_y
_atom_site_fract_z
1	C	0.367094	0.645553	0.996942
2	C	0.387124	0.700222	0.996742
3	C	0.35334	0.721314	0.996916
4	C	0.298671	0.686677	0.996756
5	C	0.277573	0.631796	0.996976
6	C	0.312215	0.611769	0.996812
7	H	0.273888	0.701623	0.995454
8	H	0.297266	0.572038	0.995494
9	H	0.426854	0.725006	0.995427
10	C	0.372842	0.774687	0.993655
11	C	0.224199	0.597926	0.993728
12	C	0.400956	0.626038	0.993698
13	H	0.431938	0.6441	0.97369
14	H	0.211285	0.566929	0.97374
15	H	0.35478	0.787594	0.973633
16	C	0.628274	0.349595	0.987944
17	C	0.612362	0.295733	0.9878
18	C	0.649296	0.278452	0.98795
19	C	0.703159	0.316401	0.987784
20	C	0.72044	0.370618	0.987944
21	C	0.682492	0.386531	0.987777
22	H	0.730273	0.304322	0.987074
23	H	0.69457	0.425726	0.987064
24	H	0.573167	0.268618	0.987098
25	C	0.633899	0.225668	0.986442
26	C	0.773224	0.407996	0.986402
27	C	0.590893	0.364999	0.986428
28	H	0.556754	0.341621	0.971688
29	H	0.783981	0.442128	0.971655
30	H	0.657278	0.214908	0.971701
31	C	0.42131	0.561793	0.015625
32	C	0.432531	0.545704	0.056171
33	C	0.460886	0.518618	0.057578
34	C	0.478811	0.507457	0.017118
35	C	0.463357	0.519957	0.309284
36	C	0.435574	0.547375	0.308919
37	H	0.424709	0.556148	0.279207
38	C	0.508011	0.480171	0.015149
39	C	0.546375	0.487598	0.047245
40	C	0.575949	0.462395	0.043437
41	C	0.568602	0.429257	0.340458
42	C	0.533082	0.424183	0.306656
43	C	0.50345	0.449652	0.310126
44	H	0.555155	0.513353	0.072916
45	H	0.603394	0.468877	0.067266
46	H	0.529711	0.402836	0.278736
47	H	0.419559	0.55342	0.085282
48	C	0.469724	0.44766	0.272425
49	C	0.47448	0.502031	0.266319
50	H	0.429109	0.418464	0.279951
51	H	0.480506	0.436397	0.241194
52	H	0.447464	0.499099	0.240023
53	H	0.514197	0.530507	0.255674
54	N	0.467525	0.499506	0.09894
55	O	0.492087	0.535807	0.126527
56	O	0.42443	0.466677	0.115834
57	N	0.598708	0.407683	0.338167
58	N	0.393294	0.58565	0.016087
59	C	0.437057	0.859292	0.015594
60	C	0.453153	0.886582	0.056148
61	C	0.480249	0.942022	0.057574
62	C	0.491402	0.971128	0.017124
63	C	0.478891	0.943189	0.309283
64	C	0.451457	0.887987	0.308897
65	H	0.442699	0.868363	0.279179
66	C	0.518741	0.02762	0.01519
67	C	0.511354	0.05856	0.047306
68	C	0.53653	0.113334	0.043475
69	C	0.569663	0.139119	0.340495
70	C	0.574768	0.108673	0.306708
71	C	0.549263	0.053569	0.310164
72	H	0.48554	0.041587	0.072938
73	H	0.530023	0.134296	0.067285
74	H	0.596063	0.126643	0.278763
75	H	0.445452	0.865881	0.085251
76	C	0.551222	0.02184	0.272444
77	C	0.496826	0.972259	0.266328
78	H	0.580391	0.01038	0.279956
79	H	0.562502	0.043899	0.241221
80	H	0.499726	0.948176	0.240014
81	H	0.468374	0.983542	0.255706
82	N	0.499374	0.967753	0.098941
83	O	0.463081	0.956013	0.126535
84	O	0.532197	0.957469	0.115819
85	N	0.591225	0.1908	0.338187
86	N	0.41321	0.807418	0.016059
87	C	0.1396	0.577585	0.015636
88	C	0.112287	0.566362	0.056179
89	C	0.056846	0.538007	0.057582
90	C	0.027767	0.520086	0.01712
91	C	0.055722	0.535537	0.309288
92	C	0.110925	0.56332	0.308927
93	H	0.130564	0.574183	0.279216
94	C	0.971277	0.490886	0.015148
95	C	0.940338	0.452522	0.047242
96	C	0.885563	0.422954	0.043432
97	C	0.859776	0.430302	0.340451
98	C	0.890225	0.46582	0.30665
99	C	0.945322	0.495451	0.310122
100	H	0.95731	0.443741	0.072915
101	H	0.864595	0.395508	0.06726
102	H	0.872248	0.469195	0.278728
103	H	0.132973	0.579335	0.085292
104	C	0.977061	0.529176	0.272422
105	C	0.026679	0.524416	0.26632
106	H	0.988483	0.569791	0.279947
107	H	0.955021	0.518395	0.24119
108	H	0.050765	0.551431	0.240026
109	H	0.015436	0.484697	0.255677
110	N	0.031091	0.531368	0.098942
111	O	0.042826	0.506807	0.126531
112	O	0.041357	0.574465	0.115835
113	N	0.80809	0.400194	0.338157
114	N	0.191473	0.605603	0.0161
115	C	0.367094	0.645553	0.330276
116	C	0.387124	0.700222	0.330074
117	C	0.35334	0.721314	0.330247
118	C	0.298671	0.686677	0.33009
119	C	0.277573	0.631796	0.330309
120	C	0.312215	0.611769	0.330145
121	H	0.273888	0.701623	0.328786
122	H	0.297266	0.572038	0.328827
123	H	0.426854	0.725006	0.328761
124	C	0.372842	0.774687	0.326989
125	C	0.224199	0.597926	0.327061
126	C	0.400956	0.626038	0.32703
127	H	0.431938	0.6441	0.307024
128	H	0.211285	0.566929	0.307071
129	H	0.35478	0.787594	0.306967
130	C	0.628274	0.349595	0.321278
131	C	0.612362	0.295733	0.321134
132	C	0.649296	0.278452	0.321283
133	C	0.703159	0.316401	0.321115
134	C	0.72044	0.370618	0.321276
135	C	0.682492	0.386531	0.32111
136	H	0.730273	0.304322	0.320408
137	H	0.69457	0.425726	0.320398
138	H	0.573167	0.268618	0.32043
139	C	0.633899	0.225668	0.319773
140	C	0.773224	0.407996	0.319736
141	C	0.590893	0.364999	0.319761
142	H	0.556754	0.341621	0.305022
143	H	0.783981	0.442128	0.304988
144	H	0.657278	0.214908	0.305036
145	C	0.42131	0.561793	0.34896
146	C	0.432531	0.545704	0.389504
147	C	0.460886	0.518618	0.39091
148	C	0.478811	0.507457	0.350452
149	C	0.463357	0.519957	0.642617
150	C	0.435574	0.547375	0.642254
151	H	0.424709	0.556148	0.61254
152	C	0.508011	0.480171	0.348484
153	C	0.546375	0.487598	0.380579
154	C	0.575949	0.462395	0.376772
155	C	0.568602	0.429257	0.673792
156	C	0.533082	0.424183	0.639989
157	C	0.50345	0.449652	0.643459
158	H	0.555155	0.513353	0.40625
159	H	0.603394	0.468877	0.400598
160	H	0.529711	0.402836	0.61207
161	H	0.419559	0.55342	0.418615
162	C	0.469724	0.44766	0.605759
163	C	0.47448	0.502031	0.599651
164	H	0.429109	0.418464	0.613283
165	H	0.480506	0.436397	0.574527
166	H	0.447464	0.499099	0.573358
167	H	0.514197	0.530507	0.589007
168	N	0.467525	0.499506	0.432273
169	O	0.492087	0.535807	0.459862
170	O	0.42443	0.466677	0.449168
171	N	0.598708	0.407683	0.671498
172	N	0.393294	0.58565	0.34942
173	C	0.437057	0.859292	0.348927
174	C	0.453153	0.886582	0.389481
175	C	0.480249	0.942022	0.390907
176	C	0.491402	0.971128	0.350459
177	C	0.478891	0.943189	0.642617
178	C	0.451457	0.887987	0.64223
179	H	0.442699	0.868363	0.612513
180	C	0.518741	0.02762	0.348524
181	C	0.511354	0.05856	0.380639
182	C	0.53653	0.113334	0.376809
183	C	0.569663	0.139119	0.673826
184	C	0.574768	0.108673	0.640042
185	C	0.549263	0.053569	0.643496
186	H	0.48554	0.041587	0.406273
187	H	0.530023	0.134296	0.400618
188	H	0.596063	0.126643	0.612097
189	H	0.445452	0.865881	0.418585
190	C	0.551222	0.02184	0.605776
191	C	0.496826	0.972259	0.599661
192	H	0.580391	0.01038	0.613289
193	H	0.562502	0.043899	0.574554
194	H	0.499726	0.948176	0.573348
195	H	0.468374	0.983542	0.589041
196	N	0.499374	0.967753	0.432273
197	O	0.463081	0.956013	0.459869
198	O	0.532197	0.957469	0.449152
199	N	0.591225	0.1908	0.671521
200	N	0.41321	0.807418	0.349393
201	C	0.1396	0.577585	0.34897
202	C	0.112287	0.566362	0.389511
203	C	0.056846	0.538007	0.390917
204	C	0.027767	0.520086	0.350452
205	C	0.055722	0.535537	0.642623
206	C	0.110925	0.56332	0.64226
207	H	0.130564	0.574183	0.61255
208	C	0.971277	0.490886	0.348481
209	C	0.940338	0.452522	0.380576
210	C	0.885563	0.422954	0.376766
211	C	0.859776	0.430302	0.673786
212	C	0.890225	0.46582	0.639982
213	C	0.945322	0.495451	0.643456
214	H	0.95731	0.443741	0.40625
215	H	0.864595	0.395508	0.400595
216	H	0.872248	0.469195	0.61206
217	H	0.132973	0.579335	0.418625
218	C	0.977061	0.529176	0.605756
219	C	0.026679	0.524416	0.599655
220	H	0.988483	0.569791	0.613279
221	H	0.955021	0.518395	0.574524
222	H	0.050765	0.551431	0.573358
223	H	0.015436	0.484697	0.589011
224	N	0.031091	0.531368	0.432277
225	O	0.042826	0.506807	0.459865
226	O	0.041357	0.574465	0.449168
227	N	0.80809	0.400194	0.671491
228	N	0.191473	0.605603	0.349433
229	C	0.367094	0.645553	0.663608
230	C	0.387124	0.700222	0.663408
231	C	0.35334	0.721314	0.663581
232	C	0.298671	0.686677	0.663425
233	C	0.277573	0.631796	0.663641
234	C	0.312215	0.611769	0.663478
235	H	0.273888	0.701623	0.662119
236	H	0.297266	0.572038	0.662159
237	H	0.426854	0.725006	0.662093
238	C	0.372842	0.774687	0.660321
239	C	0.224199	0.597926	0.660394
240	C	0.400956	0.626038	0.660364
241	H	0.431938	0.6441	0.640359
242	H	0.211285	0.566929	0.640405
243	H	0.35478	0.787594	0.640302
244	C	0.628274	0.349595	0.654613
245	C	0.612362	0.295733	0.654466
246	C	0.649296	0.278452	0.654616
247	C	0.703159	0.316401	0.654449
248	C	0.72044	0.370618	0.654609
249	C	0.682492	0.386531	0.654443
250	H	0.730273	0.304322	0.65374
251	H	0.69457	0.425726	0.653733
252	H	0.573167	0.268618	0.653763
253	C	0.633899	0.225668	0.653107
254	C	0.773224	0.407996	0.653071
255	C	0.590893	0.364999	0.653094
256	H	0.556754	0.341621	0.638354
257	H	0.783981	0.442128	0.63832
258	H	0.657278	0.214908	0.63837
259	C	0.42131	0.561793	0.682291
260	C	0.432531	0.545704	0.722839
261	C	0.460886	0.518618	0.724244
262	C	0.478811	0.507457	0.683783
263	C	0.463357	0.519957	0.975951
264	C	0.435574	0.547375	0.975585
265	H	0.424709	0.556148	0.945874
266	C	0.508011	0.480171	0.681815
267	C	0.546375	0.487598	0.713913
268	C	0.575949	0.462395	0.710103
269	C	0.568602	0.429257	0.007126
270	C	0.533082	0.424183	0.973323
271	C	0.50345	0.449652	0.976793
272	H	0.555155	0.513353	0.739584
273	H	0.603394	0.468877	0.733932
274	H	0.529711	0.402836	0.945401
275	H	0.419559	0.55342	0.75195
276	C	0.469724	0.44766	0.939094
277	C	0.47448	0.502031	0.932986
278	H	0.429109	0.418464	0.946617
279	H	0.480506	0.436397	0.907861
280	H	0.447464	0.499099	0.906689
281	H	0.514197	0.530507	0.922342
282	N	0.467525	0.499506	0.765607
283	O	0.492087	0.535807	0.793193
284	O	0.42443	0.466677	0.782503
285	N	0.598708	0.407683	0.004832
286	N	0.393294	0.58565	0.682754
287	C	0.437057	0.859292	0.682261
288	C	0.453153	0.886582	0.722815
289	C	0.480249	0.942022	0.724241
290	C	0.491402	0.971128	0.68379
291	C	0.478891	0.943189	0.975951
292	C	0.451457	0.887987	0.975565
293	H	0.442699	0.868363	0.945844
294	C	0.518741	0.02762	0.681855
295	C	0.511354	0.05856	0.713973
296	C	0.53653	0.113334	0.710143
297	C	0.569663	0.139119	0.00716
298	C	0.574768	0.108673	0.973377
299	C	0.549263	0.053569	0.97683
300	H	0.48554	0.041587	0.739604
301	H	0.530023	0.134296	0.733952
302	H	0.596063	0.126643	0.945431
303	H	0.445452	0.865881	0.75192
304	C	0.551222	0.02184	0.93911
305	C	0.496826	0.972259	0.932996
306	H	0.580391	0.01038	0.946624
307	H	0.562502	0.043899	0.907888
308	H	0.499726	0.948176	0.906679
309	H	0.468374	0.983542	0.922372
310	N	0.499374	0.967753	0.765607
311	O	0.463081	0.956013	0.793203
312	O	0.532197	0.957469	0.782486
313	N	0.591225	0.1908	0.004854
314	N	0.41321	0.807418	0.682728
315	C	0.1396	0.577585	0.682301
316	C	0.112287	0.566362	0.722845
317	C	0.056846	0.538007	0.724248
318	C	0.027767	0.520086	0.683787
319	C	0.055722	0.535537	0.975954
320	C	0.110925	0.56332	0.975595
321	H	0.130564	0.574183	0.945884
322	C	0.971277	0.490886	0.681815
323	C	0.940338	0.452522	0.71391
324	C	0.885563	0.422954	0.7101
325	C	0.859776	0.430302	0.007118
326	C	0.890225	0.46582	0.973317
327	C	0.945322	0.495451	0.97679
328	H	0.95731	0.443741	0.739581
329	H	0.864595	0.395508	0.733926
330	H	0.872248	0.469195	0.945395
331	H	0.132973	0.579335	0.75196
332	C	0.977061	0.529176	0.93909
333	C	0.026679	0.524416	0.932989
334	H	0.988483	0.569791	0.946614
335	H	0.955021	0.518395	0.907858
336	H	0.050765	0.551431	0.906692
337	H	0.015436	0.484697	0.922342
338	N	0.031091	0.531368	0.765607
339	O	0.042826	0.506807	0.7932
340	O	0.041357	0.574465	0.782503
341	N	0.80809	0.400194	0.004824
342	N	0.191473	0.605603	0.682768
