data_C360H180N36O72_2018-02-15_10:39:46
#******************************************
#
# CIF file created by Zeo++
# Zeo++ is an open source package to
# analyze microporous materials
#
#*******************************************

_cell_length_a		29.9571   
_cell_length_b		29.9572   
_cell_length_c		29.9838   
_cell_angle_alpha		90   
_cell_angle_beta		90   
_cell_angle_gamma		120   

_symmetry_space_group_name_H-M		'P1'
_symmetry_Int_Tables_number		1
_symmetry_cell_setting		Monoclinic

loop_
_symmetry_equiv_pos_as_xyz
'+x,+y,+z'

loop_
_atom_site_label
_atom_site_type_symbol
_atom_site_fract_x
_atom_site_fract_y
_atom_site_fract_z
1	C	0.111358	0.312172	0.009212
2	C	0.140531	0.366807	0.008884
3	C	0.19525	0.395179	0.008734
4	C	0.220467	0.365857	0.006662
5	C	0.194214	0.311211	0.006929
6	C	0.139678	0.285938	0.007886
7	H	0.259592	0.385109	0.004347
8	H	0.119827	0.247226	0.00187
9	H	0.121223	0.386568	0.013212
10	C	0.389156	0.201627	0.001874
11	C	0.360628	0.147052	0.005459
12	C	0.306059	0.117749	0.00381
13	C	0.280059	0.146204	0.000718
14	C	0.30576	0.200767	0.998417
15	C	0.360327	0.227097	0.996833
16	H	0.240751	0.126498	0.000819
17	H	0.379527	0.266392	0.99846
18	H	0.380492	0.127588	0.004664
19	C	0.278021	0.228002	0.999921
20	C	0.231158	0.208233	0.023784
21	C	0.203256	0.234765	0.027432
22	C	0.221129	0.282987	0.005327
23	C	0.268623	0.303095	0.315346
24	H	0.218585	0.175532	0.042448
25	C	0.296469	0.27682	0.313124
26	H	0.282687	0.336354	0.297245
27	H	0.329053	0.292623	0.293932
28	N	0.161146	0.215385	0.057563
29	O	0.128093	0.169404	0.048868
30	O	0.175604	0.217658	0.097272
31	C	0.27867	0.06264	0.005772
32	C	0.299072	0.034876	0.027767
33	C	0.272331	0.480275	0.030711
34	C	0.22339	0.450384	0.009543
35	C	0.202711	0.478321	0.321471
36	H	0.332722	0.054595	0.045278
37	C	0.229185	0.03245	0.319904
38	H	0.168915	0.459519	0.304
39	H	0.212891	0.049267	0.301444
40	N	0.292086	0.456524	0.059331
41	O	0.336591	0.466507	0.048058
42	O	0.293188	0.469537	0.099359
43	C	0.444185	0.229615	0.0044
44	C	0.471502	0.210001	0.028185
45	C	0.025993	0.236396	0.031401
46	C	0.056207	0.284735	0.009478
47	C	0.028769	0.305365	0.320443
48	H	0.451525	0.177004	0.046501
49	C	0.474621	0.27881	0.31809
50	H	0.048029	0.33897	0.302763
51	H	0.457989	0.294765	0.298934
52	N	0.049194	0.216755	0.06073
53	O	0.035906	0.170774	0.051657
54	O	0.037617	0.218774	0.100682
55	C	0.111358	0.312172	0.342545
56	C	0.140531	0.366807	0.342215
57	C	0.19525	0.395179	0.342065
58	C	0.220467	0.365857	0.339994
59	C	0.194214	0.311211	0.340261
60	C	0.139678	0.285938	0.341218
61	H	0.259592	0.385109	0.337679
62	H	0.119827	0.247226	0.335205
63	H	0.121223	0.386568	0.346544
64	C	0.389156	0.201627	0.335208
65	C	0.360628	0.147052	0.33879
66	C	0.306059	0.117749	0.337142
67	C	0.280059	0.146204	0.334051
68	C	0.30576	0.200767	0.331751
69	C	0.360327	0.227097	0.330168
70	H	0.240751	0.126498	0.334151
71	H	0.379527	0.266392	0.331794
72	H	0.380492	0.127588	0.337996
73	C	0.278021	0.228002	0.333256
74	C	0.231158	0.208233	0.357117
75	C	0.203256	0.234765	0.360765
76	C	0.221129	0.282987	0.33866
77	C	0.268623	0.303095	0.648678
78	H	0.218585	0.175532	0.37578
79	C	0.296469	0.27682	0.646457
80	H	0.282687	0.336354	0.630578
81	H	0.329053	0.292623	0.627266
82	N	0.161146	0.215385	0.390895
83	O	0.128093	0.169404	0.3822
84	O	0.175604	0.217658	0.430606
85	C	0.27867	0.06264	0.339104
86	C	0.299072	0.034876	0.361099
87	C	0.272331	0.480275	0.364044
88	C	0.22339	0.450384	0.342876
89	C	0.202711	0.478321	0.654804
90	H	0.332722	0.054595	0.378612
91	C	0.229185	0.03245	0.653237
92	H	0.168915	0.459519	0.637332
93	H	0.212891	0.049267	0.634777
94	N	0.292086	0.456524	0.392662
95	O	0.336591	0.466507	0.38139
96	O	0.293188	0.469537	0.432691
97	C	0.444185	0.229615	0.337733
98	C	0.471502	0.210001	0.361519
99	C	0.025993	0.236396	0.364734
100	C	0.056207	0.284735	0.342812
101	C	0.028769	0.305365	0.653777
102	H	0.451525	0.177004	0.379836
103	C	0.474621	0.27881	0.651423
104	H	0.048029	0.33897	0.636094
105	H	0.457989	0.294765	0.632269
106	N	0.049194	0.216755	0.394063
107	O	0.035906	0.170774	0.384992
108	O	0.037617	0.218774	0.434015
109	C	0.111358	0.312172	0.675879
110	C	0.140531	0.366807	0.675549
111	C	0.19525	0.395179	0.675399
112	C	0.220467	0.365857	0.673328
113	C	0.194214	0.311211	0.673595
114	C	0.139678	0.285938	0.674552
115	H	0.259592	0.385109	0.671013
116	H	0.119827	0.247226	0.668535
117	H	0.121223	0.386568	0.679878
118	C	0.389156	0.201627	0.668538
119	C	0.360628	0.147052	0.672124
120	C	0.306059	0.117749	0.670476
121	C	0.280059	0.146204	0.667384
122	C	0.30576	0.200767	0.665083
123	C	0.360327	0.227097	0.663502
124	H	0.240751	0.126498	0.667485
125	H	0.379527	0.266392	0.665127
126	H	0.380492	0.127588	0.67133
127	C	0.278021	0.228002	0.666587
128	C	0.231158	0.208233	0.69045
129	C	0.203256	0.234765	0.694099
130	C	0.221129	0.282987	0.671994
131	C	0.268623	0.303095	0.982011
132	H	0.218585	0.175532	0.709114
133	C	0.296469	0.27682	0.97979
134	H	0.282687	0.336354	0.963912
135	H	0.329053	0.292623	0.9606
136	N	0.161146	0.215385	0.724229
137	O	0.128093	0.169404	0.715534
138	O	0.175604	0.217658	0.763937
139	C	0.27867	0.06264	0.672437
140	C	0.299072	0.034876	0.694432
141	C	0.272331	0.480275	0.697377
142	C	0.22339	0.450384	0.676209
143	C	0.202711	0.478321	0.988138
144	H	0.332722	0.054595	0.711942
145	C	0.229185	0.03245	0.986571
146	H	0.168915	0.459519	0.970665
147	H	0.212891	0.049267	0.968111
148	N	0.292086	0.456524	0.725996
149	O	0.336591	0.466507	0.714723
150	O	0.293188	0.469537	0.766025
151	C	0.444185	0.229615	0.671066
152	C	0.471502	0.210001	0.694849
153	C	0.025993	0.236396	0.698068
154	C	0.056207	0.284735	0.676143
155	C	0.028769	0.305365	0.987108
156	H	0.451525	0.177004	0.713166
157	C	0.474621	0.27881	0.984756
158	H	0.048029	0.33897	0.969428
159	H	0.457989	0.294765	0.965599
160	N	0.049194	0.216755	0.727397
161	O	0.035906	0.170774	0.718322
162	O	0.037617	0.218774	0.767349
163	C	0.111358	0.812171	0.009213
164	C	0.14053	0.866805	0.008886
165	C	0.19525	0.895178	0.008737
166	C	0.220467	0.865857	0.006665
167	C	0.194215	0.811212	0.00693
168	C	0.139678	0.785938	0.007886
169	H	0.259593	0.88511	0.004351
170	H	0.119828	0.747227	0.00187
171	H	0.121223	0.886567	0.013215
172	C	0.389157	0.701628	0.001872
173	C	0.360629	0.647052	0.005455
174	C	0.30606	0.61775	0.003806
175	C	0.28006	0.646204	0.000714
176	C	0.305761	0.700768	0.998414
177	C	0.360329	0.727099	0.996833
178	H	0.24075	0.626496	0.000815
179	H	0.379527	0.766391	0.99846
180	H	0.380492	0.627587	0.004661
181	C	0.278021	0.728001	0.999921
182	C	0.231157	0.708231	0.023782
183	C	0.203256	0.734765	0.027431
184	C	0.22113	0.782989	0.005327
185	C	0.268623	0.803094	0.315346
186	H	0.218583	0.675529	0.042444
187	C	0.29647	0.776822	0.313124
188	H	0.282688	0.836355	0.297247
189	H	0.329054	0.792625	0.293933
190	N	0.161144	0.715381	0.057561
191	O	0.128092	0.669401	0.048864
192	O	0.175603	0.717655	0.09727
193	C	0.27867	0.562638	0.005768
194	C	0.299071	0.534874	0.027763
195	C	0.27233	0.980274	0.030715
196	C	0.22339	0.950382	0.009546
197	C	0.202713	0.978324	0.321475
198	H	0.332722	0.554594	0.045274
199	C	0.229186	0.53245	0.3199
200	H	0.168915	0.959518	0.304003
201	H	0.212891	0.549267	0.301439
202	N	0.292085	0.956523	0.059335
203	O	0.336591	0.966506	0.048061
204	O	0.293188	0.969535	0.099362
205	C	0.444186	0.729616	0.004399
206	C	0.471502	0.71	0.028183
207	C	0.025993	0.736396	0.0314
208	C	0.056208	0.784735	0.009478
209	C	0.028769	0.805364	0.320444
210	H	0.451522	0.677002	0.046499
211	C	0.474622	0.778811	0.31809
212	H	0.048029	0.838972	0.302765
213	H	0.457991	0.794768	0.298935
214	N	0.049194	0.716753	0.060729
215	O	0.035906	0.670773	0.051655
216	O	0.037615	0.718769	0.100681
217	C	0.111358	0.812171	0.342545
218	C	0.14053	0.866805	0.342219
219	C	0.19525	0.895178	0.342068
220	C	0.220467	0.865857	0.339997
221	C	0.194215	0.811212	0.340264
222	C	0.139678	0.785938	0.341218
223	H	0.259593	0.88511	0.337683
224	H	0.119828	0.747227	0.335201
225	H	0.121223	0.886567	0.346548
226	C	0.389157	0.701628	0.335205
227	C	0.360629	0.647052	0.338787
228	C	0.30606	0.61775	0.337139
229	C	0.28006	0.646204	0.334047
230	C	0.305761	0.700768	0.331748
231	C	0.360329	0.727099	0.330166
232	H	0.24075	0.626496	0.334147
233	H	0.379527	0.766391	0.331794
234	H	0.380492	0.627587	0.337993
235	C	0.278021	0.728001	0.333254
236	C	0.231157	0.708231	0.357117
237	C	0.203256	0.734765	0.360765
238	C	0.22113	0.782989	0.33866
239	C	0.268623	0.803094	0.648681
240	H	0.218583	0.675529	0.375777
241	C	0.29647	0.776822	0.646457
242	H	0.282688	0.836355	0.630581
243	H	0.329054	0.792625	0.627266
244	N	0.161144	0.715381	0.390895
245	O	0.128092	0.669401	0.382197
246	O	0.175603	0.717655	0.430603
247	C	0.27867	0.562638	0.3391
248	C	0.299071	0.534874	0.361095
249	C	0.27233	0.980274	0.364047
250	C	0.22339	0.950382	0.342879
251	C	0.202713	0.978324	0.654808
252	H	0.332722	0.554594	0.378605
253	C	0.229186	0.53245	0.653234
254	H	0.168915	0.959518	0.637335
255	H	0.212891	0.549267	0.634774
256	N	0.292085	0.956523	0.392669
257	O	0.336591	0.966506	0.381393
258	O	0.293188	0.969535	0.432694
259	C	0.444186	0.729616	0.337733
260	C	0.471502	0.71	0.361516
261	C	0.025993	0.736396	0.364734
262	C	0.056208	0.784735	0.342812
263	C	0.028769	0.805364	0.653777
264	H	0.451522	0.677002	0.379832
265	C	0.474622	0.778811	0.651423
266	H	0.048029	0.838972	0.636098
267	H	0.457991	0.794768	0.632269
268	N	0.049194	0.716753	0.39406
269	O	0.035906	0.670773	0.384988
270	O	0.037615	0.718769	0.434015
271	C	0.111358	0.812171	0.675879
272	C	0.14053	0.866805	0.675552
273	C	0.19525	0.895178	0.675402
274	C	0.220467	0.865857	0.673331
275	C	0.194215	0.811212	0.673595
276	C	0.139678	0.785938	0.674552
277	H	0.259593	0.88511	0.671016
278	H	0.119828	0.747227	0.668535
279	H	0.121223	0.886567	0.679881
280	C	0.389157	0.701628	0.668538
281	C	0.360629	0.647052	0.67212
282	C	0.30606	0.61775	0.670473
283	C	0.28006	0.646204	0.667381
284	C	0.305761	0.700768	0.66508
285	C	0.360329	0.727099	0.663499
286	H	0.24075	0.626496	0.667481
287	H	0.379527	0.766391	0.665127
288	H	0.380492	0.627587	0.671327
289	C	0.278021	0.728001	0.666587
290	C	0.231157	0.708231	0.690447
291	C	0.203256	0.734765	0.694096
292	C	0.22113	0.782989	0.671994
293	C	0.268623	0.803094	0.982011
294	H	0.218583	0.675529	0.70911
295	C	0.29647	0.776822	0.97979
296	H	0.282688	0.836355	0.963912
297	H	0.329054	0.792625	0.9606
298	N	0.161144	0.715381	0.724229
299	O	0.128092	0.669401	0.715531
300	O	0.175603	0.717655	0.763937
301	C	0.27867	0.562638	0.672434
302	C	0.299071	0.534874	0.694429
303	C	0.27233	0.980274	0.697381
304	C	0.22339	0.950382	0.676213
305	C	0.202713	0.978324	0.988141
306	H	0.332722	0.554594	0.711939
307	C	0.229186	0.53245	0.986567
308	H	0.168915	0.959518	0.970669
309	H	0.212891	0.549267	0.968104
310	N	0.292085	0.956523	0.726
311	O	0.336591	0.966506	0.714727
312	O	0.293188	0.969535	0.766028
313	C	0.444186	0.729616	0.671066
314	C	0.471502	0.71	0.694849
315	C	0.025993	0.736396	0.698068
316	C	0.056208	0.784735	0.676146
317	C	0.028769	0.805364	0.987111
318	H	0.451522	0.677002	0.713166
319	C	0.474622	0.778811	0.984756
320	H	0.048029	0.838972	0.969431
321	H	0.457991	0.794768	0.965599
322	N	0.049194	0.716753	0.727394
323	O	0.035906	0.670773	0.718322
324	O	0.037615	0.718769	0.767349
325	C	0.611358	0.312172	0.009212
326	C	0.640531	0.366807	0.008884
327	C	0.695252	0.395179	0.008734
328	C	0.720468	0.365857	0.006662
329	C	0.694216	0.311211	0.006929
330	C	0.63968	0.285938	0.007886
331	H	0.759593	0.385109	0.004347
332	H	0.619826	0.247226	0.00187
333	H	0.621223	0.386568	0.013212
334	C	0.889158	0.201627	0.001874
335	C	0.860629	0.147052	0.005459
336	C	0.80606	0.117749	0.00381
337	C	0.78006	0.146204	0.000718
338	C	0.805763	0.200767	0.998417
339	C	0.860327	0.227097	0.996833
340	H	0.740751	0.126498	0.000819
341	H	0.879527	0.266392	0.99846
342	H	0.880492	0.127588	0.004664
343	C	0.778021	0.228002	0.999921
344	C	0.731157	0.208233	0.023784
345	C	0.703257	0.234765	0.027432
346	C	0.72113	0.282987	0.005327
347	C	0.768624	0.303095	0.315346
348	H	0.718585	0.175532	0.042448
349	C	0.796468	0.27682	0.313124
350	H	0.78269	0.336354	0.297245
351	H	0.829055	0.292623	0.293932
352	N	0.661148	0.215385	0.057563
353	O	0.628092	0.169404	0.048868
354	O	0.675603	0.217658	0.097272
355	C	0.778672	0.06264	0.005772
356	C	0.799072	0.034876	0.027767
357	C	0.772333	0.480275	0.030711
358	C	0.723392	0.450384	0.009543
359	C	0.702711	0.478321	0.321471
360	H	0.832723	0.054595	0.045278
361	C	0.729184	0.03245	0.319904
362	H	0.668915	0.459519	0.304
363	H	0.712891	0.049267	0.301444
364	N	0.792086	0.456524	0.059331
365	O	0.836594	0.466507	0.048058
366	O	0.793188	0.469537	0.099359
367	C	0.944187	0.229615	0.0044
368	C	0.971503	0.210001	0.028185
369	C	0.525995	0.236396	0.031401
370	C	0.556206	0.284735	0.009478
371	C	0.528771	0.305365	0.320443
372	H	0.951523	0.177004	0.046501
373	C	0.974623	0.27881	0.31809
374	H	0.54803	0.33897	0.302763
375	H	0.957989	0.294765	0.298934
376	N	0.549195	0.216755	0.06073
377	O	0.535908	0.170774	0.051657
378	O	0.53762	0.218774	0.100682
379	C	0.611358	0.312172	0.342545
380	C	0.640531	0.366807	0.342215
381	C	0.695252	0.395179	0.342065
382	C	0.720468	0.365857	0.339994
383	C	0.694216	0.311211	0.340261
384	C	0.63968	0.285938	0.341218
385	H	0.759593	0.385109	0.337679
386	H	0.619826	0.247226	0.335205
387	H	0.621223	0.386568	0.346544
388	C	0.889158	0.201627	0.335208
389	C	0.860629	0.147052	0.33879
390	C	0.80606	0.117749	0.337142
391	C	0.78006	0.146204	0.334051
392	C	0.805763	0.200767	0.331751
393	C	0.860327	0.227097	0.330168
394	H	0.740751	0.126498	0.334151
395	H	0.879527	0.266392	0.331794
396	H	0.880492	0.127588	0.337996
397	C	0.778021	0.228002	0.333256
398	C	0.731157	0.208233	0.357117
399	C	0.703257	0.234765	0.360765
400	C	0.72113	0.282987	0.33866
401	C	0.768624	0.303095	0.648678
402	H	0.718585	0.175532	0.37578
403	C	0.796468	0.27682	0.646457
404	H	0.78269	0.336354	0.630578
405	H	0.829055	0.292623	0.627266
406	N	0.661148	0.215385	0.390895
407	O	0.628092	0.169404	0.3822
408	O	0.675603	0.217658	0.430606
409	C	0.778672	0.06264	0.339104
410	C	0.799072	0.034876	0.361099
411	C	0.772333	0.480275	0.364044
412	C	0.723392	0.450384	0.342876
413	C	0.702711	0.478321	0.654804
414	H	0.832723	0.054595	0.378612
415	C	0.729184	0.03245	0.653237
416	H	0.668915	0.459519	0.637332
417	H	0.712891	0.049267	0.634777
418	N	0.792086	0.456524	0.392662
419	O	0.836594	0.466507	0.38139
420	O	0.793188	0.469537	0.432691
421	C	0.944187	0.229615	0.337733
422	C	0.971503	0.210001	0.361519
423	C	0.525995	0.236396	0.364734
424	C	0.556206	0.284735	0.342812
425	C	0.528771	0.305365	0.653777
426	H	0.951523	0.177004	0.379836
427	C	0.974623	0.27881	0.651423
428	H	0.54803	0.33897	0.636094
429	H	0.957989	0.294765	0.632269
430	N	0.549195	0.216755	0.394063
431	O	0.535908	0.170774	0.384992
432	O	0.53762	0.218774	0.434015
433	C	0.611358	0.312172	0.675879
434	C	0.640531	0.366807	0.675549
435	C	0.695252	0.395179	0.675399
436	C	0.720468	0.365857	0.673328
437	C	0.694216	0.311211	0.673595
438	C	0.63968	0.285938	0.674552
439	H	0.759593	0.385109	0.671013
440	H	0.619826	0.247226	0.668535
441	H	0.621223	0.386568	0.679878
442	C	0.889158	0.201627	0.668538
443	C	0.860629	0.147052	0.672124
444	C	0.80606	0.117749	0.670476
445	C	0.78006	0.146204	0.667384
446	C	0.805763	0.200767	0.665083
447	C	0.860327	0.227097	0.663502
448	H	0.740751	0.126498	0.667485
449	H	0.879527	0.266392	0.665127
450	H	0.880492	0.127588	0.67133
451	C	0.778021	0.228002	0.666587
452	C	0.731157	0.208233	0.69045
453	C	0.703257	0.234765	0.694099
454	C	0.72113	0.282987	0.671994
455	C	0.768624	0.303095	0.982011
456	H	0.718585	0.175532	0.709114
457	C	0.796468	0.27682	0.97979
458	H	0.78269	0.336354	0.963912
459	H	0.829055	0.292623	0.9606
460	N	0.661148	0.215385	0.724229
461	O	0.628092	0.169404	0.715534
462	O	0.675603	0.217658	0.763937
463	C	0.778672	0.06264	0.672437
464	C	0.799072	0.034876	0.694432
465	C	0.772333	0.480275	0.697377
466	C	0.723392	0.450384	0.676209
467	C	0.702711	0.478321	0.988138
468	H	0.832723	0.054595	0.711942
469	C	0.729184	0.03245	0.986571
470	H	0.668915	0.459519	0.970665
471	H	0.712891	0.049267	0.968111
472	N	0.792086	0.456524	0.725996
473	O	0.836594	0.466507	0.714723
474	O	0.793188	0.469537	0.766025
475	C	0.944187	0.229615	0.671066
476	C	0.971503	0.210001	0.694849
477	C	0.525995	0.236396	0.698068
478	C	0.556206	0.284735	0.676143
479	C	0.528771	0.305365	0.987108
480	H	0.951523	0.177004	0.713166
481	C	0.974623	0.27881	0.984756
482	H	0.54803	0.33897	0.969428
483	H	0.957989	0.294765	0.965599
484	N	0.549195	0.216755	0.727397
485	O	0.535908	0.170774	0.718322
486	O	0.53762	0.218774	0.767349
487	C	0.611359	0.812171	0.009213
488	C	0.640531	0.866805	0.008886
489	C	0.695251	0.895178	0.008737
490	C	0.720468	0.865857	0.006665
491	C	0.694216	0.811212	0.00693
492	C	0.639679	0.785938	0.007886
493	H	0.759594	0.88511	0.004351
494	H	0.619828	0.747227	0.00187
495	H	0.621224	0.886567	0.013215
496	C	0.889158	0.701628	0.001872
497	C	0.860629	0.647052	0.005455
498	C	0.80606	0.61775	0.003806
499	C	0.78006	0.646204	0.000714
500	C	0.805763	0.700768	0.998414
501	C	0.860331	0.727099	0.996833
502	H	0.74075	0.626496	0.000815
503	H	0.879527	0.766391	0.99846
504	H	0.880492	0.627587	0.004661
505	C	0.77802	0.728001	0.999921
506	C	0.731159	0.708231	0.023782
507	C	0.703257	0.734765	0.027431
508	C	0.721131	0.782989	0.005327
509	C	0.768623	0.803094	0.315346
510	H	0.718584	0.675529	0.042444
511	C	0.796469	0.776822	0.313124
512	H	0.78269	0.836355	0.297247
513	H	0.829056	0.792625	0.293933
514	N	0.661145	0.715381	0.057561
515	O	0.628092	0.669401	0.048864
516	O	0.675604	0.717655	0.09727
517	C	0.778671	0.562638	0.005768
518	C	0.799072	0.534874	0.027763
519	C	0.772331	0.980274	0.030715
520	C	0.723391	0.950382	0.009546
521	C	0.702713	0.978324	0.321475
522	H	0.832722	0.554594	0.045274
523	C	0.729188	0.53245	0.3199
524	H	0.668916	0.959518	0.304003
525	H	0.712891	0.549267	0.301439
526	N	0.792086	0.956523	0.059335
527	O	0.836593	0.966506	0.048061
528	O	0.793189	0.969535	0.099362
529	C	0.944188	0.729616	0.004399
530	C	0.971503	0.71	0.028183
531	C	0.525994	0.736396	0.0314
532	C	0.556208	0.784735	0.009478
533	C	0.52877	0.805364	0.320444
534	H	0.951522	0.677002	0.046499
535	C	0.974623	0.778811	0.31809
536	H	0.548031	0.838972	0.302765
537	H	0.95799	0.794768	0.298935
538	N	0.549195	0.716753	0.060729
539	O	0.535907	0.670773	0.051655
540	O	0.537616	0.718769	0.100681
541	C	0.611359	0.812171	0.342545
542	C	0.640531	0.866805	0.342219
543	C	0.695251	0.895178	0.342068
544	C	0.720468	0.865857	0.339997
545	C	0.694216	0.811212	0.340264
546	C	0.639679	0.785938	0.341218
547	H	0.759594	0.88511	0.337683
548	H	0.619828	0.747227	0.335201
549	H	0.621224	0.886567	0.346548
550	C	0.889158	0.701628	0.335205
551	C	0.860629	0.647052	0.338787
552	C	0.80606	0.61775	0.337139
553	C	0.78006	0.646204	0.334047
554	C	0.805763	0.700768	0.331748
555	C	0.860331	0.727099	0.330166
556	H	0.74075	0.626496	0.334147
557	H	0.879527	0.766391	0.331794
558	H	0.880492	0.627587	0.337993
559	C	0.77802	0.728001	0.333254
560	C	0.731159	0.708231	0.357117
561	C	0.703257	0.734765	0.360765
562	C	0.721131	0.782989	0.33866
563	C	0.768623	0.803094	0.648681
564	H	0.718584	0.675529	0.375777
565	C	0.796469	0.776822	0.646457
566	H	0.78269	0.836355	0.630581
567	H	0.829056	0.792625	0.627266
568	N	0.661145	0.715381	0.390895
569	O	0.628092	0.669401	0.382197
570	O	0.675604	0.717655	0.430603
571	C	0.778671	0.562638	0.3391
572	C	0.799072	0.534874	0.361095
573	C	0.772331	0.980274	0.364047
574	C	0.723391	0.950382	0.342879
575	C	0.702713	0.978324	0.654808
576	H	0.832722	0.554594	0.378605
577	C	0.729188	0.53245	0.653234
578	H	0.668916	0.959518	0.637335
579	H	0.712891	0.549267	0.634774
580	N	0.792086	0.956523	0.392669
581	O	0.836593	0.966506	0.381393
582	O	0.793189	0.969535	0.432694
583	C	0.944188	0.729616	0.337733
584	C	0.971503	0.71	0.361516
585	C	0.525994	0.736396	0.364734
586	C	0.556208	0.784735	0.342812
587	C	0.52877	0.805364	0.653777
588	H	0.951522	0.677002	0.379832
589	C	0.974623	0.778811	0.651423
590	H	0.548031	0.838972	0.636098
591	H	0.95799	0.794768	0.632269
592	N	0.549195	0.716753	0.39406
593	O	0.535907	0.670773	0.384988
594	O	0.537616	0.718769	0.434015
595	C	0.611359	0.812171	0.675879
596	C	0.640531	0.866805	0.675552
597	C	0.695251	0.895178	0.675402
598	C	0.720468	0.865857	0.673331
599	C	0.694216	0.811212	0.673595
600	C	0.639679	0.785938	0.674552
601	H	0.759594	0.88511	0.671016
602	H	0.619828	0.747227	0.668535
603	H	0.621224	0.886567	0.679881
604	C	0.889158	0.701628	0.668538
605	C	0.860629	0.647052	0.67212
606	C	0.80606	0.61775	0.670473
607	C	0.78006	0.646204	0.667381
608	C	0.805763	0.700768	0.66508
609	C	0.860331	0.727099	0.663499
610	H	0.74075	0.626496	0.667481
611	H	0.879527	0.766391	0.665127
612	H	0.880492	0.627587	0.671327
613	C	0.77802	0.728001	0.666587
614	C	0.731159	0.708231	0.690447
615	C	0.703257	0.734765	0.694096
616	C	0.721131	0.782989	0.671994
617	C	0.768623	0.803094	0.982011
618	H	0.718584	0.675529	0.70911
619	C	0.796469	0.776822	0.97979
620	H	0.78269	0.836355	0.963912
621	H	0.829056	0.792625	0.9606
622	N	0.661145	0.715381	0.724229
623	O	0.628092	0.669401	0.715531
624	O	0.675604	0.717655	0.763937
625	C	0.778671	0.562638	0.672434
626	C	0.799072	0.534874	0.694429
627	C	0.772331	0.980274	0.697381
628	C	0.723391	0.950382	0.676213
629	C	0.702713	0.978324	0.988141
630	H	0.832722	0.554594	0.711939
631	C	0.729188	0.53245	0.986567
632	H	0.668916	0.959518	0.970669
633	H	0.712891	0.549267	0.968104
634	N	0.792086	0.956523	0.726
635	O	0.836593	0.966506	0.714727
636	O	0.793189	0.969535	0.766028
637	C	0.944188	0.729616	0.671066
638	C	0.971503	0.71	0.694849
639	C	0.525994	0.736396	0.698068
640	C	0.556208	0.784735	0.676146
641	C	0.52877	0.805364	0.987111
642	H	0.951522	0.677002	0.713166
643	C	0.974623	0.778811	0.984756
644	H	0.548031	0.838972	0.969431
645	H	0.95799	0.794768	0.965599
646	N	0.549195	0.716753	0.727394
647	O	0.535907	0.670773	0.718322
648	O	0.537616	0.718769	0.767349
