data_C216H108N54_2018-02-15_10:38:33
#******************************************
#
# CIF file created by Zeo++
# Zeo++ is an open source package to
# analyze microporous materials
#
#*******************************************

_cell_length_a		30.0789   
_cell_length_b		30.079   
_cell_length_c		29.428   
_cell_angle_alpha		90   
_cell_angle_beta		90   
_cell_angle_gamma		120   

_symmetry_space_group_name_H-M		'P1'
_symmetry_Int_Tables_number		1
_symmetry_cell_setting		Monoclinic

loop_
_symmetry_equiv_pos_as_xyz
'+x,+y,+z'

loop_
_atom_site_label
_atom_site_type_symbol
_atom_site_fract_x
_atom_site_fract_y
_atom_site_fract_z
1	N	0.149748	0.616477	0.009379
2	C	0.123431	0.564099	0.009192
3	N	0.149757	0.538045	0.009464
4	C	0.041666	0.523223	0.301174
5	C	0.069272	0.537024	0.342497
6	C	0.04164	0.523227	0.050484
7	H	0.060708	0.532766	0.080902
8	H	0.060754	0.532755	0.270769
9	N	0.149748	0.616477	0.342711
10	C	0.123431	0.564099	0.342528
11	N	0.149757	0.538045	0.342796
12	C	0.041666	0.523223	0.634508
13	C	0.069272	0.537024	0.675833
14	C	0.04164	0.523227	0.383818
15	H	0.060708	0.532766	0.414235
16	H	0.060754	0.532755	0.604102
17	N	0.149748	0.616477	0.676043
18	C	0.123431	0.564099	0.67586
19	N	0.149757	0.538045	0.676132
20	C	0.041666	0.523223	0.96784
21	C	0.069272	0.537024	0.009165
22	C	0.04164	0.523227	0.71715
23	H	0.060708	0.532766	0.74757
24	H	0.060754	0.532755	0.937437
25	C	0.201957	0.642751	0.009904
26	C	0.20197	0.563992	0.009947
27	N	0.227183	0.615982	0.010275
28	C	0.232279	0.540544	0.01041
29	C	0.23226	0.696491	0.010195
30	C	0.201957	0.642751	0.343238
31	C	0.20197	0.563992	0.343282
32	N	0.227183	0.615982	0.343608
33	C	0.232279	0.540544	0.343744
34	C	0.23226	0.696491	0.34353
35	C	0.201957	0.642751	0.67657
36	C	0.20197	0.563992	0.676614
37	N	0.227183	0.615982	0.67694
38	C	0.232279	0.540544	0.677076
39	C	0.23226	0.696491	0.676862
40	C	0.304003	0.541584	0.051435
41	C	0.257164	0.541557	0.051485
42	C	0.256275	0.540026	0.302539
43	C	0.303151	0.540068	0.302476
44	H	0.242922	0.545507	0.27224
45	H	0.244338	0.548041	0.081638
46	C	0.257171	0.720223	0.051333
47	C	0.30391	0.767123	0.051478
48	C	0.303331	0.768071	0.302596
49	C	0.256431	0.721268	0.30248
50	H	0.244152	0.700933	0.081482
51	H	0.24311	0.702557	0.27213
52	C	0.304003	0.541584	0.384766
53	C	0.257164	0.541557	0.384817
54	C	0.256275	0.540026	0.635874
55	C	0.303151	0.540068	0.635809
56	H	0.242922	0.545507	0.605573
57	H	0.244338	0.548041	0.414972
58	C	0.257171	0.720223	0.384668
59	C	0.30391	0.767123	0.38481
60	C	0.303331	0.768071	0.635928
61	C	0.256431	0.721268	0.635813
62	H	0.244152	0.700933	0.414816
63	H	0.24311	0.702557	0.605464
64	C	0.304003	0.541584	0.718102
65	C	0.257164	0.541557	0.718153
66	C	0.256275	0.540026	0.969206
67	C	0.303151	0.540068	0.969142
68	H	0.242922	0.545507	0.938905
69	H	0.244338	0.548041	0.748304
70	C	0.257171	0.720223	0.718
71	C	0.30391	0.767123	0.718143
72	C	0.303331	0.768071	0.969264
73	C	0.256431	0.721268	0.969148
74	H	0.244152	0.700933	0.748148
75	H	0.24311	0.702557	0.938796
76	C	0.381464	0.563999	0.01004
77	N	0.407742	0.538068	0.009501
78	C	0.46012	0.564122	0.009216
79	N	0.486174	0.6165	0.009375
80	C	0.460236	0.642774	0.009942
81	N	0.408239	0.615997	0.010319
82	C	0.460305	0.822384	0.009916
83	N	0.486251	0.874593	0.009294
84	C	0.460199	0.90092	0.009138
85	N	0.407823	0.874612	0.009477
86	C	0.381544	0.822403	0.010027
87	N	0.408309	0.797174	0.010356
88	C	0.827203	0.376673	0.009949
89	N	0.87941	0.402931	0.009324
90	C	0.90574	0.455313	0.009144
91	N	0.87943	0.481379	0.009464
92	C	0.827221	0.455455	0.010039
93	N	0.80199	0.403457	0.010373
94	C	0.647641	0.455397	0.009885
95	N	0.621373	0.48134	0.009362
96	C	0.568993	0.455286	0.009185
97	N	0.542936	0.402908	0.009464
98	C	0.568873	0.376634	0.009943
99	N	0.620866	0.403403	0.010265
100	C	0.568857	0.197141	0.010025
101	N	0.542918	0.144931	0.009481
102	C	0.568974	0.118609	0.009195
103	N	0.621354	0.144928	0.009358
104	C	0.647624	0.197135	0.00993
105	N	0.620854	0.222361	0.010312
106	C	0.987529	0.496166	0.30116
107	C	0.987507	0.496181	0.050469
108	C	0.959899	0.482377	0.34247
109	H	0.968459	0.48663	0.270746
110	H	0.96842	0.486653	0.080879
111	C	0.528133	0.49622	0.301196
112	C	0.501056	0.52328	0.301202
113	C	0.487204	0.537043	0.342521
114	C	0.50098	0.523192	0.050509
115	C	0.528055	0.496128	0.050503
116	C	0.54191	0.482369	0.342507
117	H	0.491415	0.532697	0.080926
118	H	0.491539	0.532847	0.270794
119	H	0.537697	0.486711	0.270783
120	H	0.537569	0.486561	0.080915
121	C	0.528176	0.036847	0.30117
122	C	0.501136	0.982712	0.301156
123	C	0.487277	0.95508	0.342466
124	C	0.501002	0.982685	0.050466
125	C	0.528043	0.03682	0.05048
126	C	0.541902	0.064451	0.342494
127	H	0.491425	0.963598	0.080875
128	H	0.491645	0.96364	0.270741
129	H	0.537751	0.055937	0.270766
130	H	0.53753	0.055886	0.080899
131	C	0.32769	0.540517	0.010261
132	H	0.323301	0.547976	0.08159
133	H	0.321912	0.5455	0.272144
134	C	0.482116	0.766908	0.051275
135	C	0.482133	0.720097	0.051296
136	C	0.483692	0.69653	0.010183
137	C	0.484704	0.721352	0.302397
138	C	0.48467	0.768187	0.3024
139	C	0.483743	0.792065	0.010168
140	H	0.47971	0.70273	0.272053
141	H	0.475383	0.700653	0.081408
142	H	0.475439	0.779627	0.081409
143	H	0.479775	0.781857	0.272038
144	C	0.327788	0.792111	0.010459
145	H	0.322073	0.781607	0.272279
146	H	0.323105	0.77993	0.081685
147	C	0.725134	0.477697	0.051335
148	C	0.771998	0.477778	0.051469
149	C	0.796935	0.478941	0.010401
150	C	0.772992	0.47944	0.302529
151	C	0.726174	0.479505	0.302447
152	C	0.701383	0.478822	0.010182
153	H	0.786541	0.47425	0.272215
154	H	0.78477	0.47124	0.081629
155	H	0.705732	0.471156	0.081448
156	H	0.707454	0.474127	0.272104
157	C	0.546471	0.252199	0.051433
158	C	0.54645	0.299013	0.051486
159	C	0.54542	0.322878	0.010413
160	C	0.544869	0.298352	0.30254
161	C	0.544905	0.251513	0.302474
162	C	0.545375	0.227434	0.010258
163	H	0.550337	0.317181	0.27224
164	H	0.552954	0.318331	0.081637
165	H	0.552875	0.239295	0.081584
166	H	0.550318	0.238177	0.272138
167	C	0.771734	0.299378	0.051297
168	C	0.724927	0.252543	0.051305
169	C	0.701382	0.227427	0.010186
170	C	0.726213	0.251238	0.302405
171	C	0.773042	0.298112	0.30242
172	C	0.796894	0.322916	0.010194
173	H	0.707601	0.237612	0.272056
174	H	0.705475	0.239842	0.081412
175	H	0.784439	0.318771	0.081433
176	H	0.78672	0.316684	0.272061
177	C	0.381464	0.563999	0.343374
178	N	0.407742	0.538068	0.342833
179	C	0.46012	0.564122	0.342548
180	N	0.486174	0.6165	0.342708
181	C	0.460236	0.642774	0.343275
182	N	0.408239	0.615997	0.343652
183	C	0.460305	0.822384	0.343248
184	N	0.486251	0.874593	0.342629
185	C	0.460199	0.90092	0.342473
186	N	0.407823	0.874612	0.342813
187	C	0.381544	0.822403	0.34336
188	N	0.408309	0.797174	0.34369
189	C	0.827203	0.376673	0.343282
190	N	0.87941	0.402931	0.342657
191	C	0.90574	0.455313	0.34248
192	N	0.87943	0.481379	0.342799
193	C	0.827221	0.455455	0.343374
194	N	0.80199	0.403457	0.343707
195	C	0.647641	0.455397	0.343217
196	N	0.621373	0.48134	0.342694
197	C	0.568993	0.455286	0.342517
198	N	0.542936	0.402908	0.342796
199	C	0.568873	0.376634	0.343275
200	N	0.620866	0.403403	0.343598
201	C	0.568857	0.197141	0.343357
202	N	0.542918	0.144931	0.342813
203	C	0.568974	0.118609	0.342528
204	N	0.621354	0.144928	0.342691
205	C	0.647624	0.197135	0.343265
206	N	0.620854	0.222361	0.343645
207	C	0.987529	0.496166	0.634494
208	C	0.987507	0.496181	0.383801
209	C	0.959899	0.482377	0.675802
210	H	0.968459	0.48663	0.604078
211	H	0.96842	0.486653	0.414211
212	C	0.528133	0.49622	0.634528
213	C	0.501056	0.52328	0.634535
214	C	0.487204	0.537043	0.675853
215	C	0.50098	0.523192	0.383842
216	C	0.528055	0.496128	0.383835
217	C	0.54191	0.482369	0.675843
218	H	0.491415	0.532697	0.414259
219	H	0.491539	0.532847	0.604129
220	H	0.537697	0.486711	0.604115
221	H	0.537569	0.486561	0.414248
222	C	0.528176	0.036847	0.634505
223	C	0.501136	0.982712	0.634488
224	C	0.487277	0.95508	0.675799
225	C	0.501002	0.982685	0.383798
226	C	0.528043	0.03682	0.383815
227	C	0.541902	0.064451	0.675829
228	H	0.491425	0.963598	0.414208
229	H	0.491645	0.96364	0.604074
230	H	0.537751	0.055937	0.604098
231	H	0.53753	0.055886	0.414231
232	C	0.32769	0.540517	0.343595
233	H	0.323301	0.547976	0.414925
234	H	0.321912	0.5455	0.605478
235	C	0.482116	0.766908	0.38461
236	C	0.482133	0.720097	0.38463
237	C	0.483692	0.69653	0.343516
238	C	0.484704	0.721352	0.635731
239	C	0.48467	0.768187	0.635735
240	C	0.483743	0.792065	0.343499
241	H	0.47971	0.70273	0.605386
242	H	0.475383	0.700653	0.414741
243	H	0.475439	0.779627	0.414741
244	H	0.479775	0.781857	0.605372
245	C	0.327788	0.792111	0.343792
246	H	0.322073	0.781607	0.605614
247	H	0.323105	0.77993	0.41502
248	C	0.725134	0.477697	0.384668
249	C	0.771998	0.477778	0.384804
250	C	0.796935	0.478941	0.343734
251	C	0.772992	0.47944	0.635864
252	C	0.726174	0.479505	0.635782
253	C	0.701383	0.478822	0.343516
254	H	0.786541	0.47425	0.605549
255	H	0.78477	0.47124	0.414962
256	H	0.705732	0.471156	0.414782
257	H	0.707454	0.474127	0.605437
258	C	0.546471	0.252199	0.384766
259	C	0.54645	0.299013	0.384821
260	C	0.54542	0.322878	0.343747
261	C	0.544869	0.298352	0.635874
262	C	0.544905	0.251513	0.635806
263	C	0.545375	0.227434	0.343591
264	H	0.550337	0.317181	0.605573
265	H	0.552954	0.318331	0.414969
266	H	0.552875	0.239295	0.414918
267	H	0.550318	0.238177	0.605471
268	C	0.771734	0.299378	0.38463
269	C	0.724927	0.252543	0.384637
270	C	0.701382	0.227427	0.34352
271	C	0.726213	0.251238	0.635738
272	C	0.773042	0.298112	0.635752
273	C	0.796894	0.322916	0.343527
274	H	0.707601	0.237612	0.605389
275	H	0.705475	0.239842	0.414744
276	H	0.784439	0.318771	0.414765
277	H	0.78672	0.316684	0.605393
278	C	0.381464	0.563999	0.676706
279	N	0.407742	0.538068	0.676169
280	C	0.46012	0.564122	0.67588
281	N	0.486174	0.6165	0.67604
282	C	0.460236	0.642774	0.676607
283	N	0.408239	0.615997	0.676984
284	C	0.460305	0.822384	0.676584
285	N	0.486251	0.874593	0.675962
286	C	0.460199	0.90092	0.675805
287	N	0.407823	0.874612	0.676145
288	C	0.381544	0.822403	0.676692
289	N	0.408309	0.797174	0.677022
290	C	0.827203	0.376673	0.676614
291	N	0.87941	0.402931	0.675989
292	C	0.90574	0.455313	0.675812
293	N	0.87943	0.481379	0.676132
294	C	0.827221	0.455455	0.676706
295	N	0.80199	0.403457	0.677039
296	C	0.647641	0.455397	0.676553
297	N	0.621373	0.48134	0.67603
298	C	0.568993	0.455286	0.675853
299	N	0.542936	0.402908	0.676132
300	C	0.568873	0.376634	0.676611
301	N	0.620866	0.403403	0.67693
302	C	0.568857	0.197141	0.676692
303	N	0.542918	0.144931	0.676149
304	C	0.568974	0.118609	0.67586
305	N	0.621354	0.144928	0.676026
306	C	0.647624	0.197135	0.676597
307	N	0.620854	0.222361	0.676978
308	C	0.987529	0.496166	0.967827
309	C	0.987507	0.496181	0.717137
310	C	0.959899	0.482377	0.009138
311	H	0.968459	0.48663	0.937413
312	H	0.96842	0.486653	0.747547
313	C	0.528133	0.49622	0.967864
314	C	0.501056	0.52328	0.967867
315	C	0.487204	0.537043	0.009188
316	C	0.50098	0.523192	0.717174
317	C	0.528055	0.496128	0.717171
318	C	0.54191	0.482369	0.009175
319	H	0.491415	0.532697	0.747594
320	H	0.491539	0.532847	0.937461
321	H	0.537697	0.486711	0.937451
322	H	0.537569	0.486561	0.747581
323	C	0.528176	0.036847	0.967837
324	C	0.501136	0.982712	0.967823
325	C	0.487277	0.95508	0.009131
326	C	0.501002	0.982685	0.717133
327	C	0.528043	0.03682	0.717147
328	C	0.541902	0.064451	0.009161
329	H	0.491425	0.963598	0.747543
330	H	0.491645	0.96364	0.937407
331	H	0.537751	0.055937	0.937434
332	H	0.53753	0.055886	0.747567
333	C	0.32769	0.540517	0.676927
334	H	0.323301	0.547976	0.748257
335	H	0.321912	0.5455	0.93881
336	C	0.482116	0.766908	0.717942
337	C	0.482133	0.720097	0.717962
338	C	0.483692	0.69653	0.676849
339	C	0.484704	0.721352	0.969063
340	C	0.48467	0.768187	0.969067
341	C	0.483743	0.792065	0.676835
342	H	0.47971	0.70273	0.938718
343	H	0.475383	0.700653	0.748073
344	H	0.475439	0.779627	0.748077
345	H	0.479775	0.781857	0.938705
346	C	0.327788	0.792111	0.677124
347	H	0.322073	0.781607	0.938946
348	H	0.323105	0.77993	0.748352
349	C	0.725134	0.477697	0.718003
350	C	0.771998	0.477778	0.718136
351	C	0.796935	0.478941	0.677069
352	C	0.772992	0.47944	0.969196
353	C	0.726174	0.479505	0.969114
354	C	0.701383	0.478822	0.676849
355	H	0.786541	0.47425	0.938881
356	H	0.78477	0.47124	0.748294
357	H	0.705732	0.471156	0.748114
358	H	0.707454	0.474127	0.938769
359	C	0.546471	0.252199	0.718098
360	C	0.54645	0.299013	0.718153
361	C	0.54542	0.322878	0.67708
362	C	0.544869	0.298352	0.969206
363	C	0.544905	0.251513	0.969142
364	C	0.545375	0.227434	0.676923
365	H	0.550337	0.317181	0.938905
366	H	0.552954	0.318331	0.748304
367	H	0.552875	0.239295	0.74825
368	H	0.550318	0.238177	0.938807
369	C	0.771734	0.299378	0.717962
370	C	0.724927	0.252543	0.717973
371	C	0.701382	0.227427	0.676852
372	C	0.726213	0.251238	0.96907
373	C	0.773042	0.298112	0.969087
374	C	0.796894	0.322916	0.676862
375	H	0.707601	0.237612	0.938722
376	H	0.705475	0.239842	0.74808
377	H	0.784439	0.318771	0.7481
378	H	0.78672	0.316684	0.938728
