data_C174H102N36O6_2018-02-15_10:47:46
#******************************************
#
# CIF file created by Zeo++
# Zeo++ is an open source package to
# analyze microporous materials
#
#*******************************************

_cell_length_a		25.7924   
_cell_length_b		25.7922   
_cell_length_c		29.4316   
_cell_angle_alpha		90   
_cell_angle_beta		90   
_cell_angle_gamma		90.0373   

_symmetry_space_group_name_H-M		'P1'
_symmetry_Int_Tables_number		1
_symmetry_cell_setting		Monoclinic

loop_
_symmetry_equiv_pos_as_xyz
'+x,+y,+z'

loop_
_atom_site_label
_atom_site_type_symbol
_atom_site_fract_x
_atom_site_fract_y
_atom_site_fract_z
1	C	0.9144	0.873171	0.335123
2	C	0.875766	0.910198	0.335405
3	C	0.898789	0.959252	0.335843
4	N	0.950678	0.949761	0.336842
5	C	0.962361	0.898311	0.33614
6	C	0.011405	0.872621	0.335632
7	C	0.059851	0.899288	0.335829
8	N	0.06907	0.951063	0.336746
9	C	0.120426	0.962416	0.336035
10	C	0.145744	0.914614	0.334631
11	C	0.10868	0.875971	0.334911
12	C	0.144944	0.011966	0.335662
13	C	0.117146	0.059885	0.33581
14	N	0.065273	0.069425	0.337011
15	C	0.053613	0.120869	0.335715
16	C	0.101593	0.145941	0.334108
17	C	0.140217	0.108887	0.334575
18	C	0.004563	0.14656	0.335126
19	C	0.956104	0.119837	0.335525
20	N	0.946855	0.068055	0.336364
21	C	0.895483	0.056681	0.335722
22	C	0.87017	0.104471	0.334392
23	C	0.907237	0.143105	0.334798
24	C	0.870928	0.007146	0.33531
25	C	0.815131	0.005398	0.331455
26	C	0.781968	0.01836	0.034758
27	C	0.727384	0.015534	0.030377
28	C	0.703726	0.999097	0.322657
29	C	0.737286	0.986609	0.286055
30	C	0.791638	0.990021	0.290201
31	C	0.003649	0.202367	0.33122
32	C	0.01653	0.235379	0.034661
33	C	0.013893	0.289987	0.030408
34	C	0.99779	0.313804	0.32267
35	C	0.985485	0.280401	0.285903
36	C	0.988695	0.226031	0.289926
37	C	0.200699	0.013541	0.331828
38	C	0.224238	0.026597	0.290003
39	C	0.27862	0.02769	0.285331
40	C	0.312165	0.015383	0.322006
41	C	0.288347	0.002168	0.030559
42	C	0.233753	0.001346	0.035394
43	C	0.012222	0.816852	0.331757
44	C	0.02493	0.793267	0.28988
45	C	0.000236	0.78385	0.035417
46	C	0.000871	0.729248	0.030604
47	C	0.013713	0.705369	0.32199
48	C	0.025828	0.738883	0.285224
49	H	0.035338	0.723905	0.254109
50	H	0.03369	0.815697	0.262242
51	H	0.991594	0.706966	0.058176
52	H	0.990708	0.799502	0.066239
53	H	0.907726	0.834167	0.334167
54	H	0.837078	0.90182	0.334976
55	H	0.976447	0.976649	0.337268
56	H	0.039503	0.042557	0.338083
57	H	0.116751	0.837234	0.33412
58	H	0.184759	0.908139	0.333386
59	H	0.201766	0.035374	0.2624
60	H	0.293558	0.037409	0.254256
61	H	0.218138	0.991444	0.066148
62	H	0.310649	0.992692	0.058065
63	H	0.178917	0.117179	0.333627
64	H	0.10828	0.184913	0.332446
65	H	0.831155	0.110957	0.333214
66	H	0.899097	0.181827	0.334146
67	H	0.02735	0.21972	0.06515
68	H	0.022709	0.31229	0.058085
69	H	0.979038	0.20363	0.262501
70	H	0.973584	0.29547	0.255459
71	H	0.814146	0.980394	0.262842
72	H	0.722347	0.974532	0.25561
73	H	0.70498	0.024537	0.057937
74	H	0.797499	0.029569	0.065195
75	C	0.991563	0.367616	0.317387
76	C	0.366171	0.016115	0.315076
77	C	0.014344	0.651364	0.31508
78	C	0.649908	0.993045	0.317161
79	H	0.968308	0.379676	0.292455
80	H	0.378781	0.022226	0.283522
81	H	0.020036	0.638732	0.283432
82	H	0.637847	0.970368	0.29182
83	C	0.011353	0.454901	0.339205
84	N	0.006052	0.481146	0.045761
85	C	0.004369	0.533759	0.049372
86	C	0.008968	0.564524	0.010001
87	N	0.015115	0.538314	0.303482
88	C	0.016351	0.485601	0.29916
89	H	0.00039	0.550395	0.080671
90	C	0.026125	0.466482	0.256297
91	O	0.996272	0.478649	0.225899
92	H	0.04126	0.43122	0.253428
93	N	0.013624	0.402824	0.341901
94	N	0.008649	0.616578	0.01294
95	C	0.562612	0.012417	0.33929
96	N	0.536314	0.006828	0.045787
97	C	0.483685	0.005254	0.049341
98	C	0.452981	0.010252	0.009974
99	N	0.47923	0.01666	0.303502
100	C	0.531952	0.017848	0.299275
101	H	0.467003	0.001001	0.080594
102	C	0.551064	0.027697	0.256435
103	O	0.543133	0.993739	0.228335
104	H	0.585558	0.044484	0.253961
105	N	0.614691	0.014532	0.342026
106	N	0.400935	0.009951	0.012878
107	C	0.9144	0.873171	0.668457
108	C	0.875766	0.910198	0.668739
109	C	0.898789	0.959252	0.669178
110	N	0.950678	0.949761	0.670177
111	C	0.962361	0.898311	0.669473
112	C	0.011405	0.872621	0.668967
113	C	0.059851	0.899288	0.669164
114	N	0.06907	0.951063	0.670078
115	C	0.120426	0.962416	0.669368
116	C	0.145744	0.914614	0.667965
117	C	0.10868	0.875971	0.668243
118	C	0.144944	0.011966	0.668998
119	C	0.117146	0.059885	0.669144
120	N	0.065273	0.069425	0.670346
121	C	0.053613	0.120869	0.669049
122	C	0.101593	0.145941	0.667441
123	C	0.140217	0.108887	0.667907
124	C	0.004563	0.14656	0.668461
125	C	0.956104	0.119837	0.668858
126	N	0.946855	0.068055	0.669697
127	C	0.895483	0.056681	0.669055
128	C	0.87017	0.104471	0.667727
129	C	0.907237	0.143105	0.668131
130	C	0.870928	0.007146	0.668644
131	C	0.815131	0.005398	0.664788
132	C	0.781968	0.01836	0.368094
133	C	0.727384	0.015534	0.363711
134	C	0.703726	0.999097	0.655991
135	C	0.737286	0.986609	0.619388
136	C	0.791638	0.990021	0.623533
137	C	0.003649	0.202367	0.664553
138	C	0.01653	0.235379	0.367995
139	C	0.013893	0.289987	0.363741
140	C	0.99779	0.313804	0.656005
141	C	0.985485	0.280401	0.619238
142	C	0.988695	0.226031	0.623261
143	C	0.200699	0.013541	0.665162
144	C	0.224238	0.026597	0.623336
145	C	0.27862	0.02769	0.618664
146	C	0.312165	0.015383	0.655339
147	C	0.288347	0.002168	0.363894
148	C	0.233753	0.001346	0.368729
149	C	0.012222	0.816852	0.66509
150	C	0.02493	0.793267	0.623214
151	C	0.000236	0.78385	0.368753
152	C	0.000871	0.729248	0.363938
153	C	0.013713	0.705369	0.655325
154	C	0.025828	0.738883	0.618559
155	H	0.035338	0.723905	0.587442
156	H	0.03369	0.815697	0.595577
157	H	0.991594	0.706966	0.391511
158	H	0.990708	0.799502	0.399573
159	H	0.907726	0.834167	0.667503
160	H	0.837078	0.90182	0.668311
161	H	0.976447	0.976649	0.670601
162	H	0.039503	0.042557	0.671417
163	H	0.116751	0.837234	0.667455
164	H	0.184759	0.908139	0.666721
165	H	0.201766	0.035374	0.595733
166	H	0.293558	0.037409	0.587589
167	H	0.218138	0.991444	0.399482
168	H	0.310649	0.992692	0.391398
169	H	0.178917	0.117179	0.666959
170	H	0.10828	0.184913	0.66578
171	H	0.831155	0.110957	0.666548
172	H	0.899097	0.181827	0.667479
173	H	0.02735	0.21972	0.398483
174	H	0.022709	0.31229	0.391419
175	H	0.979038	0.20363	0.595835
176	H	0.973584	0.29547	0.588795
177	H	0.814146	0.980394	0.596175
178	H	0.722347	0.974532	0.588944
179	H	0.70498	0.024537	0.391269
180	H	0.797499	0.029569	0.39853
181	C	0.991563	0.367616	0.650721
182	C	0.366171	0.016115	0.648411
183	C	0.014344	0.651364	0.648414
184	C	0.649908	0.993045	0.650494
185	H	0.968308	0.379676	0.625789
186	H	0.378781	0.022226	0.616856
187	H	0.020036	0.638732	0.616765
188	H	0.637847	0.970368	0.625154
189	C	0.011353	0.454901	0.672538
190	N	0.006052	0.481146	0.379095
191	C	0.004369	0.533759	0.382707
192	C	0.008968	0.564524	0.343335
193	N	0.015115	0.538314	0.636815
194	C	0.016351	0.485601	0.632493
195	H	0.00039	0.550395	0.414003
196	C	0.026125	0.466482	0.589631
197	O	0.996272	0.478649	0.559231
198	H	0.04126	0.43122	0.586763
199	N	0.013624	0.402824	0.675236
200	N	0.008649	0.616578	0.346274
201	C	0.562612	0.012417	0.672623
202	N	0.536314	0.006828	0.379123
203	C	0.483685	0.005254	0.382673
204	C	0.452981	0.010252	0.343307
205	N	0.47923	0.01666	0.636835
206	C	0.531952	0.017848	0.632608
207	H	0.467003	0.001001	0.413929
208	C	0.551064	0.027697	0.58977
209	O	0.543133	0.993739	0.561668
210	H	0.585558	0.044484	0.587296
211	N	0.614691	0.014532	0.675358
212	N	0.400935	0.009951	0.346212
213	C	0.9144	0.873171	0.001789
214	C	0.875766	0.910198	0.002071
215	C	0.898789	0.959252	0.002509
216	N	0.950678	0.949761	0.003508
217	C	0.962361	0.898311	0.002808
218	C	0.011405	0.872621	0.002299
219	C	0.059851	0.899288	0.002496
220	N	0.06907	0.951063	0.003413
221	C	0.120426	0.962416	0.002703
222	C	0.145744	0.914614	0.0013
223	C	0.10868	0.875971	0.001578
224	C	0.144944	0.011966	0.002329
225	C	0.117146	0.059885	0.002479
226	N	0.065273	0.069425	0.003678
227	C	0.053613	0.120869	0.002384
228	C	0.101593	0.145941	0.000776
229	C	0.140217	0.108887	0.001242
230	C	0.004563	0.14656	0.001792
231	C	0.956104	0.119837	0.002193
232	N	0.946855	0.068055	0.003033
233	C	0.895483	0.056681	0.00239
234	C	0.87017	0.104471	0.001058
235	C	0.907237	0.143105	0.001466
236	C	0.870928	0.007146	0.001979
237	C	0.815131	0.005398	0.998123
238	C	0.781968	0.01836	0.701425
239	C	0.727384	0.015534	0.697046
240	C	0.703726	0.999097	0.989326
241	C	0.737286	0.986609	0.952723
242	C	0.791638	0.990021	0.956868
243	C	0.003649	0.202367	0.997888
244	C	0.01653	0.235379	0.70133
245	C	0.013893	0.289987	0.697076
246	C	0.99779	0.313804	0.989336
247	C	0.985485	0.280401	0.95257
248	C	0.988695	0.226031	0.956593
249	C	0.200699	0.013541	0.998497
250	C	0.224238	0.026597	0.956671
251	C	0.27862	0.02769	0.951999
252	C	0.312165	0.015383	0.988674
253	C	0.288347	0.002168	0.697226
254	C	0.233753	0.001346	0.702061
255	C	0.012222	0.816852	0.998425
256	C	0.02493	0.793267	0.956549
257	C	0.000236	0.78385	0.702084
258	C	0.000871	0.729248	0.69727
259	C	0.013713	0.705369	0.988657
260	C	0.025828	0.738883	0.95189
261	H	0.035338	0.723905	0.920778
262	H	0.03369	0.815697	0.928908
263	H	0.991594	0.706966	0.724842
264	H	0.990708	0.799502	0.732905
265	H	0.907726	0.834167	0.000834
266	H	0.837078	0.90182	0.001643
267	H	0.976447	0.976649	0.003936
268	H	0.039503	0.042557	0.004752
269	H	0.116751	0.837234	0.000787
270	H	0.184759	0.908139	5.3e-05
271	H	0.201766	0.035374	0.929068
272	H	0.293558	0.037409	0.920924
273	H	0.218138	0.991444	0.732817
274	H	0.310649	0.992692	0.724733
275	H	0.178917	0.117179	0.000294
276	H	0.10828	0.184913	0.999115
277	H	0.831155	0.110957	0.999883
278	H	0.899097	0.181827	0.000814
279	H	0.02735	0.21972	0.731818
280	H	0.022709	0.31229	0.724754
281	H	0.979038	0.20363	0.92917
282	H	0.973584	0.29547	0.922126
283	H	0.814146	0.980394	0.92951
284	H	0.722347	0.974532	0.922276
285	H	0.70498	0.024537	0.724604
286	H	0.797499	0.029569	0.731862
287	C	0.991563	0.367616	0.984056
288	C	0.366171	0.016115	0.981743
289	C	0.014344	0.651364	0.981749
290	C	0.649908	0.993045	0.983829
291	H	0.968308	0.379676	0.959124
292	H	0.378781	0.022226	0.950188
293	H	0.020036	0.638732	0.9501
294	H	0.637847	0.970368	0.958489
295	C	0.011353	0.454901	0.005873
296	N	0.006052	0.481146	0.712427
297	C	0.004369	0.533759	0.716039
298	C	0.008968	0.564524	0.67667
299	N	0.015115	0.538314	0.97015
300	C	0.016351	0.485601	0.965828
301	H	0.00039	0.550395	0.747338
302	C	0.026125	0.466482	0.922966
303	O	0.996272	0.478649	0.892566
304	H	0.04126	0.43122	0.920095
305	N	0.013624	0.402824	0.008571
306	N	0.008649	0.616578	0.679609
307	C	0.562612	0.012417	0.005958
308	N	0.536314	0.006828	0.712454
309	C	0.483685	0.005254	0.716008
310	C	0.452981	0.010252	0.676642
311	N	0.47923	0.01666	0.97017
312	C	0.531952	0.017848	0.965943
313	H	0.467003	0.001001	0.747264
314	C	0.551064	0.027697	0.923102
315	O	0.543133	0.993739	0.895003
316	H	0.585558	0.044484	0.920628
317	N	0.614691	0.014532	0.008693
318	N	0.400935	0.009951	0.679547
