data_C162H126N36_2018-02-15_10:45:56
#******************************************
#
# CIF file created by Zeo++
# Zeo++ is an open source package to
# analyze microporous materials
#
#*******************************************

_cell_length_a		29.3884   
_cell_length_b		29.3884   
_cell_length_c		29.9584   
_cell_angle_alpha		90   
_cell_angle_beta		90   
_cell_angle_gamma		120   

_symmetry_space_group_name_H-M		'P1'
_symmetry_Int_Tables_number		1
_symmetry_cell_setting		Monoclinic

loop_
_symmetry_equiv_pos_as_xyz
'+x,+y,+z'

loop_
_atom_site_label
_atom_site_type_symbol
_atom_site_fract_x
_atom_site_fract_y
_atom_site_fract_z
1	H	0.013308	0.534912	0.089672
2	H	0.013308	0.534912	0.423003
3	H	0.013308	0.534912	0.756339
4	N	0.018561	0.604017	0.307809
5	N	0.018561	0.604017	0.641142
6	N	0.018561	0.604017	0.974475
7	C	0.359648	0.636895	0.001567
8	C	0.304178	0.612275	0.002042
9	C	0.278633	0.642089	0.001618
10	C	0.309483	0.697557	0.002055
11	C	0.364842	0.723104	0.001592
12	C	0.38946	0.692252	0.002023
13	H	0.291451	0.719662	0.003
14	H	0.429597	0.710283	0.002963
15	H	0.282073	0.572136	0.00298
16	N	0.385646	0.610617	0.002682
17	N	0.226358	0.616095	0.002718
18	N	0.391123	0.77538	0.002704
19	C	0.63708	0.359029	0.998064
20	C	0.692561	0.389172	0.99756
21	C	0.723335	0.364657	0.998074
22	C	0.697996	0.309175	0.997563
23	C	0.642705	0.2784	0.998061
24	C	0.612565	0.30374	0.99756
25	H	0.720073	0.29108	0.997096
26	H	0.572393	0.281663	0.997089
27	H	0.710657	0.429344	0.997099
28	N	0.60695	0.380863	0.997433
29	N	0.775299	0.394788	0.997443
30	N	0.620875	0.226437	0.997433
31	C	0.574819	0.435989	0.017408
32	C	0.550623	0.443022	0.055492
33	C	0.515217	0.462396	0.052224
34	C	0.504736	0.47592	0.009275
35	C	0.529214	0.469233	0.30453
36	C	0.563636	0.449304	0.308491
37	H	0.522359	0.479087	0.273456
38	H	0.58116	0.445493	0.280302
39	C	0.470833	0.496905	0.002976
40	C	0.490009	0.550097	0.014358
41	C	0.458449	0.573165	0.009145
42	C	0.406715	0.543862	0.325551
43	C	0.388029	0.490725	0.31384
44	C	0.418997	0.466478	0.318996
45	H	0.52728	0.572607	0.026707
46	H	0.473879	0.611784	0.017872
47	H	0.35058	0.468722	0.301661
48	H	0.558533	0.433368	0.086275
49	N	0.492263	0.466844	0.090188
50	H	0.49967	0.456958	0.119143
51	H	0.466804	0.478733	0.089661
52	N	0.397714	0.414889	0.307802
53	H	0.416845	0.396128	0.311632
54	H	0.362035	0.394717	0.296329
55	C	0.374116	0.565331	0.320328
56	C	0.610121	0.418178	0.022066
57	H	0.63695	0.433336	0.046216
58	H	0.340536	0.544825	0.303688
59	C	0.565746	0.139182	0.01741
60	C	0.558692	0.107951	0.055497
61	C	0.539322	0.053171	0.052232
62	C	0.525812	0.029167	0.009282
63	C	0.532522	0.060335	0.304533
64	C	0.552434	0.114681	0.308494
65	H	0.522684	0.043626	0.273458
66	H	0.556287	0.136025	0.2803
67	C	0.504828	0.974275	0.002986
68	C	0.451637	0.940261	0.014369
69	C	0.428569	0.885635	0.009157
70	C	0.457873	0.863203	0.325563
71	C	0.511014	0.897654	0.313857
72	C	0.535254	0.952866	0.319004
73	H	0.42913	0.955023	0.026722
74	H	0.38995	0.862445	0.017883
75	H	0.533006	0.882205	0.301662
76	H	0.56833	0.125514	0.086282
77	N	0.534847	0.025765	0.0902
78	H	0.544851	0.043085	0.119138
79	H	0.523096	0.988447	0.089654
80	N	0.586842	0.983171	0.307806
81	H	0.605597	0.021071	0.3116
82	H	0.607005	0.967666	0.296304
83	C	0.436399	0.809135	0.320333
84	C	0.583563	0.192299	0.022068
85	H	0.568393	0.203962	0.046213
86	H	0.456895	0.796059	0.303681
87	C	0.862555	0.426905	0.017405
88	C	0.893782	0.451092	0.055492
89	C	0.948559	0.486501	0.052228
90	C	0.972567	0.496992	0.00928
91	C	0.941403	0.472521	0.304532
92	C	0.887058	0.438099	0.308489
93	H	0.958117	0.479382	0.273458
94	H	0.865721	0.420579	0.280298
95	C	0.027457	0.530896	0.002985
96	C	0.061473	0.511722	0.014371
97	C	0.116102	0.543284	0.009165
98	C	0.138533	0.595023	0.325575
99	C	0.104081	0.613706	0.313857
100	C	0.048867	0.582733	0.319007
101	H	0.046711	0.474451	0.026719
102	H	0.139292	0.527859	0.017896
103	H	0.119529	0.651154	0.301681
104	H	0.876215	0.443171	0.086275
105	N	0.975957	0.509447	0.090196
106	H	0.958666	0.502033	0.119149
107	H	0.980667	0.584886	0.311635
108	H	0.034068	0.639697	0.296338
109	C	0.192602	0.627623	0.320361
110	C	0.809442	0.391596	0.02206
111	H	0.797778	0.36475	0.046193
112	H	0.205679	0.661208	0.303727
113	C	0.359648	0.636895	0.334901
114	C	0.304178	0.612275	0.335375
115	C	0.278633	0.642089	0.334951
116	C	0.309483	0.697557	0.335388
117	C	0.364842	0.723104	0.334924
118	C	0.38946	0.692252	0.335355
119	H	0.291451	0.719662	0.336333
120	H	0.429597	0.710283	0.336296
121	H	0.282073	0.572136	0.336313
122	N	0.385646	0.610617	0.336016
123	N	0.226358	0.616095	0.336053
124	N	0.391123	0.77538	0.336036
125	C	0.63708	0.359029	0.331396
126	C	0.692561	0.389172	0.330895
127	C	0.723335	0.364657	0.331407
128	C	0.697996	0.309175	0.330898
129	C	0.642705	0.2784	0.331395
130	C	0.612565	0.30374	0.330893
131	H	0.720073	0.29108	0.330429
132	H	0.572393	0.281663	0.330421
133	H	0.710657	0.429344	0.330432
134	N	0.60695	0.380863	0.330765
135	N	0.775299	0.394788	0.330777
136	N	0.620875	0.226437	0.330766
137	C	0.574819	0.435989	0.35074
138	C	0.550623	0.443022	0.388826
139	C	0.515217	0.462396	0.385558
140	C	0.504736	0.47592	0.342608
141	C	0.529214	0.469233	0.637865
142	C	0.563636	0.449304	0.641823
143	H	0.522359	0.479087	0.606788
144	H	0.58116	0.445493	0.613634
145	C	0.470833	0.496905	0.33631
146	C	0.490009	0.550097	0.347692
147	C	0.458449	0.573165	0.342478
148	C	0.406715	0.543862	0.658884
149	C	0.388029	0.490725	0.647174
150	C	0.418997	0.466478	0.652328
151	H	0.52728	0.572607	0.360039
152	H	0.473879	0.611784	0.351204
153	H	0.35058	0.468722	0.634994
154	H	0.558533	0.433368	0.419609
155	N	0.492263	0.466844	0.423521
156	H	0.49967	0.456958	0.452478
157	H	0.466804	0.478733	0.422993
158	N	0.397714	0.414889	0.641136
159	H	0.416845	0.396128	0.644964
160	H	0.362035	0.394717	0.629663
161	C	0.374116	0.565331	0.65366
162	C	0.610121	0.418178	0.3554
163	H	0.63695	0.433336	0.37955
164	H	0.340536	0.544825	0.63702
165	C	0.565746	0.139182	0.350743
166	C	0.558692	0.107951	0.388829
167	C	0.539322	0.053171	0.385565
168	C	0.525812	0.029167	0.342615
169	C	0.532522	0.060335	0.637868
170	C	0.552434	0.114681	0.641827
171	H	0.522684	0.043626	0.606792
172	H	0.556287	0.136025	0.613634
173	C	0.504828	0.974275	0.33632
174	C	0.451637	0.940261	0.347702
175	C	0.428569	0.885635	0.342492
176	C	0.457873	0.863203	0.658897
177	C	0.511014	0.897654	0.647191
178	C	0.535254	0.952866	0.652338
179	H	0.42913	0.955023	0.360056
180	H	0.38995	0.862445	0.351217
181	H	0.533006	0.882205	0.634994
182	H	0.56833	0.125514	0.419615
183	N	0.534847	0.025765	0.423534
184	H	0.544851	0.043085	0.452471
185	H	0.523096	0.988447	0.422987
186	N	0.586842	0.983171	0.641139
187	H	0.605597	0.021071	0.644934
188	H	0.607005	0.967666	0.629637
189	C	0.436399	0.809135	0.653667
190	C	0.583563	0.192299	0.355403
191	H	0.568393	0.203962	0.379546
192	H	0.456895	0.796059	0.637013
193	C	0.862555	0.426905	0.350736
194	C	0.893782	0.451092	0.388826
195	C	0.948559	0.486501	0.385561
196	C	0.972567	0.496992	0.342612
197	C	0.941403	0.472521	0.637865
198	C	0.887058	0.438099	0.641823
199	H	0.958117	0.479382	0.606792
200	H	0.865721	0.420579	0.613631
201	C	0.027457	0.530896	0.33632
202	C	0.061473	0.511722	0.347706
203	C	0.116102	0.543284	0.342498
204	C	0.138533	0.595023	0.658907
205	C	0.104081	0.613706	0.647191
206	C	0.048867	0.582733	0.652341
207	H	0.046711	0.474451	0.360053
208	H	0.139292	0.527859	0.35123
209	H	0.119529	0.651154	0.635014
210	H	0.876215	0.443171	0.419609
211	N	0.975957	0.509447	0.423531
212	H	0.958666	0.502033	0.452481
213	H	0.980667	0.584886	0.644968
214	H	0.034068	0.639697	0.62967
215	C	0.192602	0.627623	0.653693
216	C	0.809442	0.391596	0.355393
217	H	0.797778	0.36475	0.379526
218	H	0.205679	0.661208	0.63706
219	C	0.359648	0.636895	0.668233
220	C	0.304178	0.612275	0.668707
221	C	0.278633	0.642089	0.668283
222	C	0.309483	0.697557	0.668721
223	C	0.364842	0.723104	0.668257
224	C	0.38946	0.692252	0.668691
225	H	0.291451	0.719662	0.669665
226	H	0.429597	0.710283	0.669629
227	H	0.282073	0.572136	0.669645
228	N	0.385646	0.610617	0.669348
229	N	0.226358	0.616095	0.669385
230	N	0.391123	0.77538	0.669372
231	C	0.63708	0.359029	0.664729
232	C	0.692561	0.389172	0.664228
233	C	0.723335	0.364657	0.664742
234	C	0.697996	0.309175	0.664231
235	C	0.642705	0.2784	0.664729
236	C	0.612565	0.30374	0.664225
237	H	0.720073	0.29108	0.663761
238	H	0.572393	0.281663	0.663754
239	H	0.710657	0.429344	0.663764
240	N	0.60695	0.380863	0.664098
241	N	0.775299	0.394788	0.664111
242	N	0.620875	0.226437	0.664098
243	C	0.574819	0.435989	0.684075
244	C	0.550623	0.443022	0.722158
245	C	0.515217	0.462396	0.71889
246	C	0.504736	0.47592	0.675941
247	C	0.529214	0.469233	0.971197
248	C	0.563636	0.449304	0.975159
249	H	0.522359	0.479087	0.940124
250	H	0.58116	0.445493	0.94697
251	C	0.470833	0.496905	0.669642
252	C	0.490009	0.550097	0.681024
253	C	0.458449	0.573165	0.675811
254	C	0.406715	0.543862	0.992219
255	C	0.388029	0.490725	0.980506
256	C	0.418997	0.466478	0.985664
257	H	0.52728	0.572607	0.693375
258	H	0.473879	0.611784	0.684539
259	H	0.35058	0.468722	0.96833
260	H	0.558533	0.433368	0.752941
261	N	0.492263	0.466844	0.756856
262	H	0.49967	0.456958	0.78581
263	H	0.466804	0.478733	0.756329
264	N	0.397714	0.414889	0.974468
265	H	0.416845	0.396128	0.978297
266	H	0.362035	0.394717	0.962996
267	C	0.374116	0.565331	0.986995
268	C	0.610121	0.418178	0.688732
269	H	0.63695	0.433336	0.712882
270	H	0.340536	0.544825	0.970356
271	C	0.565746	0.139182	0.684075
272	C	0.558692	0.107951	0.722165
273	C	0.539322	0.053171	0.718897
274	C	0.525812	0.029167	0.675947
275	C	0.532522	0.060335	0.9712
276	C	0.552434	0.114681	0.975162
277	H	0.522684	0.043626	0.940124
278	H	0.556287	0.136025	0.946967
279	C	0.504828	0.974275	0.669652
280	C	0.451637	0.940261	0.681034
281	C	0.428569	0.885635	0.675824
282	C	0.457873	0.863203	0.992229
283	C	0.511014	0.897654	0.980523
284	C	0.535254	0.952866	0.98567
285	H	0.42913	0.955023	0.693388
286	H	0.38995	0.862445	0.684549
287	H	0.533006	0.882205	0.96833
288	H	0.56833	0.125514	0.752948
289	N	0.534847	0.025765	0.756866
290	H	0.544851	0.043085	0.785803
291	H	0.523096	0.988447	0.756322
292	N	0.586842	0.983171	0.974471
293	H	0.605597	0.021071	0.978267
294	H	0.607005	0.967666	0.962969
295	C	0.436399	0.809135	0.986999
296	C	0.583563	0.192299	0.688735
297	H	0.568393	0.203962	0.712879
298	H	0.456895	0.796059	0.970349
299	C	0.862555	0.426905	0.684072
300	C	0.893782	0.451092	0.722158
301	C	0.948559	0.486501	0.718894
302	C	0.972567	0.496992	0.675947
303	C	0.941403	0.472521	0.971197
304	C	0.887058	0.438099	0.975156
305	H	0.958117	0.479382	0.940124
306	H	0.865721	0.420579	0.946963
307	C	0.027457	0.530896	0.669652
308	C	0.061473	0.511722	0.681038
309	C	0.116102	0.543284	0.675831
310	C	0.138533	0.595023	0.992239
311	C	0.104081	0.613706	0.980523
312	C	0.048867	0.582733	0.985674
313	H	0.046711	0.474451	0.693385
314	H	0.139292	0.527859	0.684563
315	H	0.119529	0.651154	0.968346
316	H	0.876215	0.443171	0.752941
317	N	0.975957	0.509447	0.756863
318	H	0.958666	0.502033	0.785816
319	H	0.980667	0.584886	0.9783
320	H	0.034068	0.639697	0.963006
321	C	0.192602	0.627623	0.987029
322	C	0.809442	0.391596	0.688725
323	H	0.797778	0.36475	0.712859
324	H	0.205679	0.661208	0.970392
