data_C324H108N252O72_2018-02-15_10:32:35
#******************************************
#
# CIF file created by Zeo++
# Zeo++ is an open source package to
# analyze microporous materials
#
#*******************************************

_cell_length_a		43.1862   
_cell_length_b		43.1862   
_cell_length_c		30.108   
_cell_angle_alpha		90   
_cell_angle_beta		90   
_cell_angle_gamma		120   

_symmetry_space_group_name_H-M		'P1'
_symmetry_Int_Tables_number		1
_symmetry_cell_setting		Monoclinic

loop_
_symmetry_equiv_pos_as_xyz
'+x,+y,+z'

loop_
_atom_site_label
_atom_site_type_symbol
_atom_site_fract_x
_atom_site_fract_y
_atom_site_fract_z
1	C	0.128159	0.320543	0.293339
2	N	0.153199	0.355823	0.960292
3	C	0.188784	0.367358	0.959966
4	N	0.199032	0.342323	0.960285
5	C	0.174986	0.306735	0.959993
6	N	0.139704	0.2965	0.960331
7	C	0.214457	0.403726	0.965187
8	C	0.185674	0.281064	0.96528
9	C	0.091797	0.30984	0.965297
10	O	0.159173	0.246475	0.968472
11	O	0.083683	0.336326	0.968416
12	O	0.249046	0.411815	0.968396
13	C	0.366646	0.176739	0.378746
14	N	0.342253	0.141259	0.045091
15	C	0.306489	0.128856	0.04538
16	N	0.295403	0.153247	0.045093
17	C	0.318765	0.189007	0.045403
18	N	0.354244	0.200098	0.045114
19	C	0.281496	0.09224	0.040427
20	C	0.307156	0.214012	0.040453
21	C	0.403258	0.188342	0.040462
22	O	0.333054	0.248851	0.037363
23	O	0.412183	0.162437	0.037305
24	O	0.246656	0.083296	0.037346
25	C	0.258359	0.224782	0.020796
26	N	0.280619	0.259203	0.341185
27	C	0.269773	0.281324	0.324484
28	C	0.232864	0.268546	0.319243
29	N	0.210506	0.234252	0.998982
30	C	0.221162	0.211968	0.015804
31	H	0.288505	0.306858	0.315939
32	C	0.19593	0.180148	0.026962
33	N	0.173625	0.152118	0.037007
34	N	0.271927	0.203978	0.035362
35	H	0.254688	0.178902	0.040755
36	N	0.220607	0.290227	0.304222
37	H	0.238653	0.315139	0.298906
38	C	0.270742	0.032679	0.020785
39	N	0.23632	0.020518	0.341178
40	C	0.214199	0.487555	0.324464
41	C	0.226983	0.463432	0.319197
42	N	0.261279	0.475367	0.998922
43	C	0.283559	0.008301	0.015765
44	H	0.188664	0.480755	0.315924
45	C	0.315393	0.014903	0.026878
46	N	0.343432	0.020638	0.036886
47	N	0.291545	0.067056	0.035338
48	H	0.316624	0.074897	0.040715
49	N	0.205297	0.429496	0.304164
50	H	0.180384	0.422627	0.298862
51	C	0.462826	0.237146	0.020799
52	N	0.474987	0.214887	0.341188
53	C	0.007956	0.225735	0.324489
54	C	0.032086	0.262645	0.319251
55	N	0.020147	0.285	0.998987
56	C	0.487207	0.274342	0.015806
57	H	0.01476	0.207004	0.315943
58	C	0.480614	0.299572	0.026963
59	N	0.474888	0.321877	0.03701
60	N	0.428451	0.223571	0.035359
61	H	0.420617	0.24081	0.04077
62	N	0.066027	0.274904	0.304239
63	H	0.072899	0.256862	0.298941
64	C	0.128159	0.320543	0.626673
65	N	0.153199	0.355823	0.293624
66	C	0.188784	0.367358	0.293298
67	N	0.199032	0.342323	0.293617
68	C	0.174986	0.306735	0.293326
69	N	0.139704	0.2965	0.293665
70	C	0.214457	0.403726	0.298521
71	C	0.185674	0.281064	0.298611
72	C	0.091797	0.30984	0.29863
73	O	0.159173	0.246475	0.301804
74	O	0.083683	0.336326	0.30175
75	O	0.249046	0.411815	0.30173
76	C	0.366646	0.176739	0.712079
77	N	0.342253	0.141259	0.378424
78	C	0.306489	0.128856	0.378713
79	N	0.295403	0.153247	0.378427
80	C	0.318765	0.189007	0.378736
81	N	0.354244	0.200098	0.378447
82	C	0.281496	0.09224	0.373761
83	C	0.307156	0.214012	0.373787
84	C	0.403258	0.188342	0.373797
85	O	0.333054	0.248851	0.370698
86	O	0.412183	0.162437	0.370639
87	O	0.246656	0.083296	0.370678
88	C	0.258359	0.224782	0.354128
89	N	0.280619	0.259203	0.674521
90	C	0.269773	0.281324	0.657818
91	C	0.232864	0.268546	0.652576
92	N	0.210506	0.234252	0.332317
93	C	0.221162	0.211968	0.349139
94	H	0.288505	0.306858	0.649272
95	C	0.19593	0.180148	0.360296
96	N	0.173625	0.152118	0.370343
97	N	0.271927	0.203978	0.368696
98	H	0.254688	0.178902	0.374089
99	N	0.220607	0.290227	0.637557
100	H	0.238653	0.315139	0.63224
101	C	0.270742	0.032679	0.354118
102	N	0.23632	0.020518	0.674511
103	C	0.214199	0.487555	0.657798
104	C	0.226983	0.463432	0.65253
105	N	0.261279	0.475367	0.332257
106	C	0.283559	0.008301	0.349099
107	H	0.188664	0.480755	0.649258
108	C	0.315393	0.014903	0.360213
109	N	0.343432	0.020638	0.37022
110	N	0.291545	0.067056	0.368672
111	H	0.316624	0.074897	0.37405
112	N	0.205297	0.429496	0.637497
113	H	0.180384	0.422627	0.632197
114	C	0.462826	0.237146	0.354131
115	N	0.474987	0.214887	0.674521
116	C	0.007956	0.225735	0.657824
117	C	0.032086	0.262645	0.652583
118	N	0.020147	0.285	0.33232
119	C	0.487207	0.274342	0.349139
120	H	0.01476	0.207004	0.649275
121	C	0.480614	0.299572	0.360296
122	N	0.474888	0.321877	0.370343
123	N	0.428451	0.223571	0.368692
124	H	0.420617	0.24081	0.374103
125	N	0.066027	0.274904	0.637574
126	H	0.072899	0.256862	0.632273
127	C	0.128159	0.320543	0.960006
128	N	0.153199	0.355823	0.626959
129	C	0.188784	0.367358	0.626633
130	N	0.199032	0.342323	0.626952
131	C	0.174986	0.306735	0.62666
132	N	0.139704	0.2965	0.626999
133	C	0.214457	0.403726	0.631854
134	C	0.185674	0.281064	0.631944
135	C	0.091797	0.30984	0.631964
136	O	0.159173	0.246475	0.635139
137	O	0.083683	0.336326	0.635083
138	O	0.249046	0.411815	0.635063
139	C	0.366646	0.176739	0.045412
140	N	0.342253	0.141259	0.71176
141	C	0.306489	0.128856	0.712049
142	N	0.295403	0.153247	0.71176
143	C	0.318765	0.189007	0.712072
144	N	0.354244	0.200098	0.71178
145	C	0.281496	0.09224	0.707093
146	C	0.307156	0.214012	0.70712
147	C	0.403258	0.188342	0.70713
148	O	0.333054	0.248851	0.704031
149	O	0.412183	0.162437	0.703971
150	O	0.246656	0.083296	0.704015
151	C	0.258359	0.224782	0.687464
152	N	0.280619	0.259203	0.007852
153	C	0.269773	0.281324	0.991151
154	C	0.232864	0.268546	0.985909
155	N	0.210506	0.234252	0.665649
156	C	0.221162	0.211968	0.682472
157	H	0.288505	0.306858	0.982605
158	C	0.19593	0.180148	0.693629
159	N	0.173625	0.152118	0.703676
160	N	0.271927	0.203978	0.702028
161	H	0.254688	0.178902	0.707422
162	N	0.220607	0.290227	0.97089
163	H	0.238653	0.315139	0.965573
164	C	0.270742	0.032679	0.687454
165	N	0.23632	0.020518	0.007843
166	C	0.214199	0.487555	0.991131
167	C	0.226983	0.463432	0.985866
168	N	0.261279	0.475367	0.66559
169	C	0.283559	0.008301	0.682432
170	H	0.188664	0.480755	0.982591
171	C	0.315393	0.014903	0.693546
172	N	0.343432	0.020638	0.703553
173	N	0.291545	0.067056	0.702005
174	H	0.316624	0.074897	0.707382
175	N	0.205297	0.429496	0.97083
176	H	0.180384	0.422627	0.965529
177	C	0.462826	0.237146	0.687468
178	N	0.474987	0.214887	0.007854
179	C	0.007956	0.225735	0.991157
180	C	0.032086	0.262645	0.985919
181	N	0.020147	0.285	0.665656
182	C	0.487207	0.274342	0.682472
183	H	0.01476	0.207004	0.982611
184	C	0.480614	0.299572	0.693632
185	N	0.474888	0.321877	0.703679
186	N	0.428451	0.223571	0.702025
187	H	0.420617	0.24081	0.707439
188	N	0.066027	0.274904	0.970907
189	H	0.072899	0.256862	0.965609
190	C	0.128159	0.820544	0.293339
191	N	0.153199	0.855824	0.960292
192	C	0.188784	0.867359	0.959966
193	N	0.199032	0.842324	0.960285
194	C	0.174986	0.806736	0.959993
195	N	0.139704	0.796498	0.960331
196	C	0.214457	0.903727	0.965187
197	C	0.185673	0.781063	0.96528
198	C	0.091797	0.80984	0.965297
199	O	0.159172	0.746475	0.968472
200	O	0.083684	0.836327	0.968416
201	O	0.249045	0.911813	0.968396
202	C	0.366646	0.67674	0.378746
203	N	0.342253	0.641259	0.045091
204	C	0.306489	0.628855	0.04538
205	N	0.295404	0.653248	0.045093
206	C	0.318764	0.689007	0.045403
207	N	0.354243	0.700098	0.045114
208	C	0.281496	0.592241	0.040427
209	C	0.307156	0.714012	0.040453
210	C	0.403259	0.688344	0.040462
211	O	0.333054	0.748852	0.037363
212	O	0.412184	0.662438	0.037305
213	O	0.246657	0.583297	0.037346
214	C	0.258359	0.724782	0.020796
215	N	0.280619	0.759205	0.341185
216	C	0.269773	0.781325	0.324484
217	C	0.232864	0.768547	0.319243
218	N	0.210506	0.734253	0.998982
219	C	0.221162	0.71197	0.015804
220	H	0.288505	0.806859	0.315939
221	C	0.195931	0.680149	0.026961
222	N	0.173625	0.65212	0.037007
223	N	0.271926	0.703978	0.035361
224	H	0.254688	0.678903	0.040755
225	N	0.220608	0.790228	0.304222
226	H	0.238653	0.81514	0.298906
227	C	0.270742	0.53268	0.020785
228	N	0.23632	0.520519	0.341178
229	C	0.214198	0.987555	0.324464
230	C	0.226981	0.96343	0.319197
231	N	0.26128	0.975368	0.998922
232	C	0.283558	0.5083	0.015765
233	H	0.188662	0.980753	0.315924
234	C	0.315393	0.514905	0.026878
235	N	0.343433	0.52064	0.036886
236	N	0.291545	0.567056	0.035338
237	H	0.316624	0.574899	0.040715
238	N	0.205298	0.929497	0.304164
239	H	0.180384	0.922628	0.298862
240	C	0.462825	0.737146	0.020799
241	N	0.474988	0.714887	0.341188
242	C	0.007955	0.725734	0.324489
243	C	0.032086	0.762646	0.319251
244	N	0.020148	0.785001	0.998987
245	C	0.487206	0.774343	0.015806
246	H	0.01476	0.707004	0.315943
247	C	0.480614	0.799573	0.026963
248	N	0.474887	0.821875	0.03701
249	N	0.428451	0.723571	0.035359
250	H	0.420617	0.740812	0.04077
251	N	0.066028	0.774905	0.304239
252	H	0.072898	0.756862	0.298941
253	C	0.128159	0.820544	0.626673
254	N	0.153199	0.855824	0.293624
255	C	0.188784	0.867359	0.293298
256	N	0.199032	0.842324	0.293617
257	C	0.174986	0.806736	0.293326
258	N	0.139704	0.796498	0.293665
259	C	0.214457	0.903727	0.298521
260	C	0.185673	0.781063	0.298611
261	C	0.091797	0.80984	0.29863
262	O	0.159172	0.746475	0.301804
263	O	0.083684	0.836327	0.30175
264	O	0.249045	0.911813	0.30173
265	C	0.366646	0.67674	0.712079
266	N	0.342253	0.641259	0.378424
267	C	0.306489	0.628855	0.378713
268	N	0.295404	0.653248	0.378427
269	C	0.318764	0.689007	0.378736
270	N	0.354243	0.700098	0.378447
271	C	0.281496	0.592241	0.373761
272	C	0.307156	0.714012	0.373787
273	C	0.403259	0.688344	0.373794
274	O	0.333054	0.748852	0.370698
275	O	0.412184	0.662438	0.370639
276	O	0.246657	0.583297	0.370678
277	C	0.258359	0.724782	0.354128
278	N	0.280619	0.759205	0.674521
279	C	0.269773	0.781325	0.657818
280	C	0.232864	0.768547	0.652576
281	N	0.210506	0.734253	0.332317
282	C	0.221162	0.71197	0.349139
283	H	0.288505	0.806859	0.649272
284	C	0.195931	0.680149	0.360296
285	N	0.173625	0.65212	0.370343
286	N	0.271926	0.703978	0.368696
287	H	0.254688	0.678903	0.374089
288	N	0.220608	0.790228	0.637557
289	H	0.238653	0.81514	0.63224
290	C	0.270742	0.53268	0.354118
291	N	0.23632	0.520519	0.674511
292	C	0.214198	0.987555	0.657798
293	C	0.226981	0.96343	0.65253
294	N	0.26128	0.975368	0.332257
295	C	0.283558	0.5083	0.349099
296	H	0.188662	0.980753	0.649258
297	C	0.315393	0.514905	0.360213
298	N	0.343433	0.52064	0.37022
299	N	0.291545	0.567056	0.368672
300	H	0.316624	0.574899	0.37405
301	N	0.205298	0.929497	0.637497
302	H	0.180384	0.922628	0.632197
303	C	0.462825	0.737146	0.354131
304	N	0.474988	0.714887	0.674521
305	C	0.007955	0.725734	0.657824
306	C	0.032086	0.762646	0.652583
307	N	0.020148	0.785001	0.33232
308	C	0.487206	0.774343	0.349139
309	H	0.01476	0.707004	0.649275
310	C	0.480614	0.799573	0.360296
311	N	0.474887	0.821875	0.370343
312	N	0.428451	0.723571	0.368692
313	H	0.420617	0.740812	0.374103
314	N	0.066028	0.774905	0.637574
315	H	0.072898	0.756862	0.632273
316	C	0.128159	0.820544	0.960006
317	N	0.153199	0.855824	0.626959
318	C	0.188784	0.867359	0.626633
319	N	0.199032	0.842324	0.626952
320	C	0.174986	0.806736	0.62666
321	N	0.139704	0.796498	0.626999
322	C	0.214457	0.903727	0.631854
323	C	0.185673	0.781063	0.631944
324	C	0.091797	0.80984	0.631964
325	O	0.159172	0.746475	0.635139
326	O	0.083684	0.836327	0.635083
327	O	0.249045	0.911813	0.635063
328	C	0.366646	0.67674	0.045412
329	N	0.342253	0.641259	0.71176
330	C	0.306489	0.628855	0.712049
331	N	0.295404	0.653248	0.71176
332	C	0.318764	0.689007	0.712072
333	N	0.354243	0.700098	0.71178
334	C	0.281496	0.592241	0.707093
335	C	0.307156	0.714012	0.70712
336	C	0.403259	0.688344	0.70713
337	O	0.333054	0.748852	0.704031
338	O	0.412184	0.662438	0.703971
339	O	0.246657	0.583297	0.704015
340	C	0.258359	0.724782	0.687464
341	N	0.280619	0.759205	0.007852
342	C	0.269773	0.781325	0.991151
343	C	0.232864	0.768547	0.985909
344	N	0.210506	0.734253	0.665649
345	C	0.221162	0.71197	0.682472
346	H	0.288505	0.806859	0.982605
347	C	0.195931	0.680149	0.693629
348	N	0.173625	0.65212	0.703676
349	N	0.271926	0.703978	0.702028
350	H	0.254688	0.678903	0.707422
351	N	0.220608	0.790228	0.97089
352	H	0.238653	0.81514	0.965573
353	C	0.270742	0.53268	0.687454
354	N	0.23632	0.520519	0.007843
355	C	0.214198	0.987555	0.991131
356	C	0.226981	0.96343	0.985866
357	N	0.26128	0.975368	0.66559
358	C	0.283558	0.5083	0.682432
359	H	0.188662	0.980753	0.982591
360	C	0.315393	0.514905	0.693546
361	N	0.343433	0.52064	0.703553
362	N	0.291545	0.567056	0.702005
363	H	0.316624	0.574899	0.707382
364	N	0.205298	0.929497	0.97083
365	H	0.180384	0.922628	0.965529
366	C	0.462825	0.737146	0.687468
367	N	0.474988	0.714887	0.007854
368	C	0.007955	0.725734	0.991157
369	C	0.032086	0.762646	0.985919
370	N	0.020148	0.785001	0.665656
371	C	0.487206	0.774343	0.682472
372	H	0.01476	0.707004	0.982611
373	C	0.480614	0.799573	0.693632
374	N	0.474887	0.821875	0.703679
375	N	0.428451	0.723571	0.702025
376	H	0.420617	0.740812	0.707439
377	N	0.066028	0.774905	0.970907
378	H	0.072898	0.756862	0.965609
379	C	0.628159	0.320543	0.293339
380	N	0.6532	0.355823	0.960292
381	C	0.688785	0.367358	0.959966
382	N	0.699032	0.342323	0.960285
383	C	0.674986	0.306735	0.959993
384	N	0.639706	0.2965	0.960331
385	C	0.714457	0.403726	0.965187
386	C	0.685674	0.281064	0.96528
387	C	0.591798	0.30984	0.965297
388	O	0.659172	0.246475	0.968472
389	O	0.583685	0.336326	0.968416
390	O	0.749046	0.411815	0.968396
391	C	0.866646	0.176739	0.378746
392	N	0.842253	0.141259	0.045091
393	C	0.806489	0.128856	0.04538
394	N	0.795404	0.153247	0.045093
395	C	0.818765	0.189007	0.045403
396	N	0.854244	0.200098	0.045114
397	C	0.781496	0.09224	0.040427
398	C	0.807156	0.214012	0.040453
399	C	0.903258	0.188342	0.040462
400	O	0.833055	0.248851	0.037363
401	O	0.912183	0.162437	0.037305
402	O	0.746656	0.083296	0.037346
403	C	0.758359	0.224782	0.020796
404	N	0.78062	0.259203	0.341185
405	C	0.769773	0.281324	0.324484
406	C	0.732865	0.268546	0.319243
407	N	0.710505	0.234252	0.998982
408	C	0.721162	0.211968	0.015804
409	H	0.788505	0.306858	0.315939
410	C	0.695932	0.180148	0.026962
411	N	0.673625	0.152118	0.037007
412	N	0.771928	0.203978	0.035362
413	H	0.754689	0.178902	0.040755
414	N	0.720608	0.290227	0.304222
415	H	0.738653	0.315139	0.298906
416	C	0.770742	0.032679	0.020785
417	N	0.73632	0.020518	0.341178
418	C	0.714198	0.487555	0.324464
419	C	0.726983	0.463432	0.319197
420	N	0.761279	0.475367	0.998922
421	C	0.783559	0.008301	0.015765
422	H	0.688664	0.480755	0.315924
423	C	0.815393	0.014903	0.026878
424	N	0.843432	0.020638	0.036886
425	N	0.791545	0.067056	0.035338
426	H	0.816624	0.074897	0.040715
427	N	0.705296	0.429496	0.304164
428	H	0.680385	0.422627	0.298862
429	C	0.962826	0.237146	0.020799
430	N	0.974989	0.214887	0.341188
431	C	0.507957	0.225735	0.324489
432	C	0.532087	0.262645	0.319251
433	N	0.520146	0.285	0.998987
434	C	0.987207	0.274342	0.015806
435	H	0.514761	0.207004	0.315943
436	C	0.980614	0.299572	0.026963
437	N	0.974888	0.321877	0.03701
438	N	0.928451	0.223571	0.035359
439	H	0.920617	0.24081	0.04077
440	N	0.566026	0.274904	0.304239
441	H	0.572899	0.256862	0.298941
442	C	0.628159	0.320543	0.626673
443	N	0.6532	0.355823	0.293624
444	C	0.688785	0.367358	0.293298
445	N	0.699032	0.342323	0.293617
446	C	0.674986	0.306735	0.293326
447	N	0.639706	0.2965	0.293665
448	C	0.714457	0.403726	0.298521
449	C	0.685674	0.281064	0.298611
450	C	0.591798	0.30984	0.29863
451	O	0.659172	0.246475	0.301804
452	O	0.583685	0.336326	0.30175
453	O	0.749046	0.411815	0.30173
454	C	0.866646	0.176739	0.712079
455	N	0.842253	0.141259	0.378424
456	C	0.806489	0.128856	0.378713
457	N	0.795404	0.153247	0.378427
458	C	0.818765	0.189007	0.378736
459	N	0.854244	0.200098	0.378447
460	C	0.781496	0.09224	0.373761
461	C	0.807156	0.214012	0.373787
462	C	0.903258	0.188342	0.373797
463	O	0.833055	0.248851	0.370698
464	O	0.912183	0.162437	0.370639
465	O	0.746656	0.083296	0.370678
466	C	0.758359	0.224782	0.354128
467	N	0.78062	0.259203	0.674521
468	C	0.769773	0.281324	0.657818
469	C	0.732865	0.268546	0.652576
470	N	0.710505	0.234252	0.332317
471	C	0.721162	0.211968	0.349139
472	H	0.788505	0.306858	0.649272
473	C	0.695932	0.180148	0.360296
474	N	0.673625	0.152118	0.370343
475	N	0.771928	0.203978	0.368696
476	H	0.754689	0.178902	0.374089
477	N	0.720608	0.290227	0.637557
478	H	0.738653	0.315139	0.63224
479	C	0.770742	0.032679	0.354118
480	N	0.73632	0.020518	0.674511
481	C	0.714198	0.487555	0.657798
482	C	0.726983	0.463432	0.65253
483	N	0.761279	0.475367	0.332257
484	C	0.783559	0.008301	0.349099
485	H	0.688664	0.480755	0.649258
486	C	0.815393	0.014903	0.360213
487	N	0.843432	0.020638	0.37022
488	N	0.791545	0.067056	0.368672
489	H	0.816624	0.074897	0.37405
490	N	0.705296	0.429496	0.637497
491	H	0.680385	0.422627	0.632197
492	C	0.962826	0.237146	0.354131
493	N	0.974989	0.214887	0.674521
494	C	0.507957	0.225735	0.657824
495	C	0.532087	0.262645	0.652583
496	N	0.520146	0.285	0.33232
497	C	0.987207	0.274342	0.349139
498	H	0.514761	0.207004	0.649275
499	C	0.980614	0.299572	0.360296
500	N	0.974888	0.321877	0.370343
501	N	0.928451	0.223571	0.368692
502	H	0.920617	0.24081	0.374103
503	N	0.566026	0.274904	0.637574
504	H	0.572899	0.256862	0.632273
505	C	0.628159	0.320543	0.960006
506	N	0.6532	0.355823	0.626959
507	C	0.688785	0.367358	0.626633
508	N	0.699032	0.342323	0.626952
509	C	0.674986	0.306735	0.62666
510	N	0.639706	0.2965	0.626999
511	C	0.714457	0.403726	0.631854
512	C	0.685674	0.281064	0.631944
513	C	0.591798	0.30984	0.631964
514	O	0.659172	0.246475	0.635139
515	O	0.583685	0.336326	0.635083
516	O	0.749046	0.411815	0.635063
517	C	0.866646	0.176739	0.045412
518	N	0.842253	0.141259	0.71176
519	C	0.806489	0.128856	0.712049
520	N	0.795404	0.153247	0.71176
521	C	0.818765	0.189007	0.712072
522	N	0.854244	0.200098	0.71178
523	C	0.781496	0.09224	0.707093
524	C	0.807156	0.214012	0.70712
525	C	0.903258	0.188342	0.70713
526	O	0.833055	0.248851	0.704031
527	O	0.912183	0.162437	0.703971
528	O	0.746656	0.083296	0.704015
529	C	0.758359	0.224782	0.687464
530	N	0.78062	0.259203	0.007852
531	C	0.769773	0.281324	0.991151
532	C	0.732865	0.268546	0.985909
533	N	0.710505	0.234252	0.665649
534	C	0.721162	0.211968	0.682472
535	H	0.788505	0.306858	0.982605
536	C	0.695932	0.180148	0.693629
537	N	0.673625	0.152118	0.703676
538	N	0.771928	0.203978	0.702028
539	H	0.754689	0.178902	0.707422
540	N	0.720608	0.290227	0.97089
541	H	0.738653	0.315139	0.965573
542	C	0.770742	0.032679	0.687454
543	N	0.73632	0.020518	0.007843
544	C	0.714198	0.487555	0.991131
545	C	0.726983	0.463432	0.985866
546	N	0.761279	0.475367	0.66559
547	C	0.783559	0.008301	0.682432
548	H	0.688664	0.480755	0.982591
549	C	0.815393	0.014903	0.693546
550	N	0.843432	0.020638	0.703553
551	N	0.791545	0.067056	0.702005
552	H	0.816624	0.074897	0.707382
553	N	0.705296	0.429496	0.97083
554	H	0.680385	0.422627	0.965529
555	C	0.962826	0.237146	0.687468
556	N	0.974989	0.214887	0.007854
557	C	0.507957	0.225735	0.991157
558	C	0.532087	0.262645	0.985919
559	N	0.520146	0.285	0.665656
560	C	0.987207	0.274342	0.682472
561	H	0.514761	0.207004	0.982611
562	C	0.980614	0.299572	0.693632
563	N	0.974888	0.321877	0.703679
564	N	0.928451	0.223571	0.702025
565	H	0.920617	0.24081	0.707439
566	N	0.566026	0.274904	0.970907
567	H	0.572899	0.256862	0.965609
568	C	0.628159	0.820544	0.293339
569	N	0.6532	0.855824	0.960292
570	C	0.688784	0.867359	0.959966
571	N	0.699033	0.842324	0.960285
572	C	0.674987	0.806736	0.959993
573	N	0.639704	0.796498	0.960331
574	C	0.714457	0.903727	0.965187
575	C	0.685674	0.781063	0.96528
576	C	0.591798	0.80984	0.965297
577	O	0.659174	0.746475	0.968472
578	O	0.583684	0.836327	0.968416
579	O	0.749046	0.911813	0.968396
580	C	0.866648	0.67674	0.378746
581	N	0.842252	0.641259	0.045091
582	C	0.80649	0.628855	0.04538
583	N	0.795404	0.653248	0.045093
584	C	0.818764	0.689007	0.045403
585	N	0.854245	0.700098	0.045114
586	C	0.781495	0.592241	0.040427
587	C	0.807157	0.714012	0.040453
588	C	0.90326	0.688344	0.040462
589	O	0.833054	0.748852	0.037363
590	O	0.912185	0.662438	0.037305
591	O	0.746657	0.583297	0.037346
592	C	0.758358	0.724782	0.020796
593	N	0.780619	0.759205	0.341185
594	C	0.769774	0.781325	0.324484
595	C	0.732864	0.768547	0.319243
596	N	0.710507	0.734253	0.998982
597	C	0.721162	0.71197	0.015804
598	H	0.788506	0.806859	0.315939
599	C	0.695931	0.680149	0.026961
600	N	0.673625	0.65212	0.037007
601	N	0.771926	0.703978	0.035361
602	H	0.754688	0.678903	0.040755
603	N	0.720607	0.790228	0.304222
604	H	0.738653	0.81514	0.298906
605	C	0.770742	0.53268	0.020785
606	N	0.736322	0.520519	0.341178
607	C	0.714199	0.987555	0.324464
608	C	0.726981	0.96343	0.319197
609	N	0.761281	0.975368	0.998922
610	C	0.783558	0.5083	0.015765
611	H	0.688664	0.980753	0.315924
612	C	0.815392	0.514905	0.026878
613	N	0.843434	0.52064	0.036886
614	N	0.791545	0.567056	0.035338
615	H	0.816625	0.574899	0.040715
616	N	0.705298	0.929497	0.304164
617	H	0.680385	0.922628	0.298862
618	C	0.962825	0.737146	0.020799
619	N	0.974988	0.714887	0.341188
620	C	0.507956	0.725734	0.324489
621	C	0.532086	0.762646	0.319251
622	N	0.520147	0.785001	0.998987
623	C	0.987206	0.774343	0.015806
624	H	0.51476	0.707004	0.315943
625	C	0.980616	0.799573	0.026963
626	N	0.974886	0.821875	0.03701
627	N	0.92845	0.723571	0.035359
628	H	0.920616	0.740812	0.04077
629	N	0.566028	0.774905	0.304239
630	H	0.572899	0.756862	0.298941
631	C	0.628159	0.820544	0.626673
632	N	0.6532	0.855824	0.293624
633	C	0.688784	0.867359	0.293298
634	N	0.699033	0.842324	0.293617
635	C	0.674987	0.806736	0.293326
636	N	0.639704	0.796498	0.293665
637	C	0.714457	0.903727	0.298521
638	C	0.685674	0.781063	0.298611
639	C	0.591798	0.80984	0.29863
640	O	0.659174	0.746475	0.301804
641	O	0.583684	0.836327	0.30175
642	O	0.749046	0.911813	0.30173
643	C	0.866648	0.67674	0.712079
644	N	0.842252	0.641259	0.378424
645	C	0.80649	0.628855	0.378713
646	N	0.795404	0.653248	0.378427
647	C	0.818764	0.689007	0.378736
648	N	0.854245	0.700098	0.378447
649	C	0.781495	0.592241	0.373761
650	C	0.807157	0.714012	0.373787
651	C	0.90326	0.688344	0.373794
652	O	0.833054	0.748852	0.370698
653	O	0.912185	0.662438	0.370639
654	O	0.746657	0.583297	0.370678
655	C	0.758358	0.724782	0.354128
656	N	0.780619	0.759205	0.674521
657	C	0.769774	0.781325	0.657818
658	C	0.732864	0.768547	0.652576
659	N	0.710507	0.734253	0.332317
660	C	0.721162	0.71197	0.349139
661	H	0.788506	0.806859	0.649272
662	C	0.695931	0.680149	0.360296
663	N	0.673625	0.65212	0.370343
664	N	0.771926	0.703978	0.368696
665	H	0.754688	0.678903	0.374089
666	N	0.720607	0.790228	0.637557
667	H	0.738653	0.81514	0.63224
668	C	0.770742	0.53268	0.354118
669	N	0.736322	0.520519	0.674511
670	C	0.714199	0.987555	0.657798
671	C	0.726981	0.96343	0.65253
672	N	0.761281	0.975368	0.332257
673	C	0.783558	0.5083	0.349099
674	H	0.688664	0.980753	0.649258
675	C	0.815392	0.514905	0.360213
676	N	0.843434	0.52064	0.37022
677	N	0.791545	0.567056	0.368672
678	H	0.816625	0.574899	0.37405
679	N	0.705298	0.929497	0.637497
680	H	0.680385	0.922628	0.632197
681	C	0.962825	0.737146	0.354131
682	N	0.974988	0.714887	0.674521
683	C	0.507956	0.725734	0.657824
684	C	0.532086	0.762646	0.652583
685	N	0.520147	0.785001	0.33232
686	C	0.987206	0.774343	0.349139
687	H	0.51476	0.707004	0.649275
688	C	0.980616	0.799573	0.360296
689	N	0.974886	0.821875	0.370343
690	N	0.92845	0.723571	0.368692
691	H	0.920616	0.740812	0.374103
692	N	0.566028	0.774905	0.637574
693	H	0.572899	0.756862	0.632273
694	C	0.628159	0.820544	0.960006
695	N	0.6532	0.855824	0.626959
696	C	0.688784	0.867359	0.626633
697	N	0.699033	0.842324	0.626952
698	C	0.674987	0.806736	0.62666
699	N	0.639704	0.796498	0.626999
700	C	0.714457	0.903727	0.631854
701	C	0.685674	0.781063	0.631944
702	C	0.591798	0.80984	0.631964
703	O	0.659174	0.746475	0.635139
704	O	0.583684	0.836327	0.635083
705	O	0.749046	0.911813	0.635063
706	C	0.866648	0.67674	0.045412
707	N	0.842252	0.641259	0.71176
708	C	0.80649	0.628855	0.712049
709	N	0.795404	0.653248	0.71176
710	C	0.818764	0.689007	0.712072
711	N	0.854245	0.700098	0.71178
712	C	0.781495	0.592241	0.707093
713	C	0.807157	0.714012	0.70712
714	C	0.90326	0.688344	0.70713
715	O	0.833054	0.748852	0.704031
716	O	0.912185	0.662438	0.703971
717	O	0.746657	0.583297	0.704015
718	C	0.758358	0.724782	0.687464
719	N	0.780619	0.759205	0.007852
720	C	0.769774	0.781325	0.991151
721	C	0.732864	0.768547	0.985909
722	N	0.710507	0.734253	0.665649
723	C	0.721162	0.71197	0.682472
724	H	0.788506	0.806859	0.982605
725	C	0.695931	0.680149	0.693629
726	N	0.673625	0.65212	0.703676
727	N	0.771926	0.703978	0.702028
728	H	0.754688	0.678903	0.707422
729	N	0.720607	0.790228	0.97089
730	H	0.738653	0.81514	0.965573
731	C	0.770742	0.53268	0.687454
732	N	0.736322	0.520519	0.007843
733	C	0.714199	0.987555	0.991131
734	C	0.726981	0.96343	0.985866
735	N	0.761281	0.975368	0.66559
736	C	0.783558	0.5083	0.682432
737	H	0.688664	0.980753	0.982591
738	C	0.815392	0.514905	0.693546
739	N	0.843434	0.52064	0.703553
740	N	0.791545	0.567056	0.702005
741	H	0.816625	0.574899	0.707382
742	N	0.705298	0.929497	0.97083
743	H	0.680385	0.922628	0.965529
744	C	0.962825	0.737146	0.687468
745	N	0.974988	0.714887	0.007854
746	C	0.507956	0.725734	0.991157
747	C	0.532086	0.762646	0.985919
748	N	0.520147	0.785001	0.665656
749	C	0.987206	0.774343	0.682472
750	H	0.51476	0.707004	0.982611
751	C	0.980616	0.799573	0.693632
752	N	0.974886	0.821875	0.703679
753	N	0.92845	0.723571	0.702025
754	H	0.920616	0.740812	0.707439
755	N	0.566028	0.774905	0.970907
756	H	0.572899	0.756862	0.965609
