data_C144H99N45_2018-02-15_10:45:13
#******************************************
#
# CIF file created by Zeo++
# Zeo++ is an open source package to
# analyze microporous materials
#
#*******************************************

_cell_length_a		29.2146   
_cell_length_b		29.2145   
_cell_length_c		29.9148   
_cell_angle_alpha		90   
_cell_angle_beta		90   
_cell_angle_gamma		120   

_symmetry_space_group_name_H-M		'P1'
_symmetry_Int_Tables_number		1
_symmetry_cell_setting		Monoclinic

loop_
_symmetry_equiv_pos_as_xyz
'+x,+y,+z'

loop_
_atom_site_label
_atom_site_type_symbol
_atom_site_fract_x
_atom_site_fract_y
_atom_site_fract_z
1	H	0.025316	0.588522	0.306047
2	H	0.010942	0.522919	0.093872
3	H	0.025316	0.588522	0.639379
4	H	0.010942	0.522919	0.427206
5	H	0.025316	0.588522	0.972715
6	H	0.010942	0.522919	0.76054
7	C	0.029218	0.526527	0.00628
8	C	0.029218	0.526527	0.339614
9	C	0.029218	0.526527	0.672948
10	C	0.281443	0.641818	0.996339
11	N	0.307963	0.614716	0.996526
12	C	0.36174	0.640336	0.996286
13	N	0.388844	0.693959	0.996496
14	C	0.363223	0.722117	0.996292
15	N	0.309601	0.695599	0.99653
16	N	0.229183	0.614273	0.997656
17	N	0.387934	0.774377	0.997623
18	N	0.389293	0.615629	0.997603
19	C	0.722768	0.364089	0.00726
20	N	0.693246	0.3881	0.007114
21	C	0.639479	0.359391	0.007293
22	N	0.615469	0.305859	0.007145
23	C	0.644177	0.280802	0.007293
24	N	0.697709	0.310324	0.007115
25	N	0.774843	0.394359	0.006855
26	N	0.622381	0.228728	0.006915
27	N	0.609202	0.381186	0.006917
28	C	0.583571	0.443826	0.015111
29	C	0.564009	0.454347	0.054589
30	C	0.527169	0.472477	0.053275
31	C	0.51084	0.481635	0.01085
32	C	0.530348	0.470612	0.304744
33	C	0.566151	0.45181	0.306777
34	H	0.519655	0.477461	0.273939
35	H	0.580399	0.445355	0.2776
36	C	0.477037	0.503405	0.006244
37	C	0.492668	0.55459	0.022499
38	C	0.459021	0.575918	0.0185
39	C	0.408877	0.546911	0.331073
40	C	0.393845	0.496018	0.314178
41	C	0.427506	0.474698	0.318104
42	H	0.52855	0.576578	0.037826
43	H	0.47134	0.612648	0.031572
44	H	0.357912	0.473667	0.299002
45	H	0.576487	0.448292	0.084907
46	H	0.415057	0.437525	0.305981
47	N	0.508169	0.479418	0.092732
48	H	0.519121	0.471821	0.121205
49	H	0.480553	0.488643	0.093833
50	C	0.373853	0.566033	0.328374
51	C	0.621119	0.428529	0.017382
52	H	0.335519	0.540302	0.324318
53	H	0.657006	0.454462	0.028537
54	C	0.559736	0.140461	0.015134
55	C	0.549169	0.110366	0.054611
56	C	0.531027	0.055393	0.053297
57	C	0.521895	0.029913	0.01087
58	C	0.532966	0.060455	0.304765
59	C	0.551761	0.115058	0.3068
60	H	0.526173	0.042926	0.273958
61	H	0.558295	0.13578	0.277624
62	C	0.500144	0.974341	0.006266
63	C	0.448966	0.93878	0.022528
64	C	0.427647	0.883805	0.018529
65	C	0.456655	0.862679	0.331091
66	C	0.507536	0.898544	0.314179
67	C	0.528859	0.953527	0.318123
68	H	0.426974	0.95267	0.037856
69	H	0.390915	0.859391	0.031595
70	H	0.529882	0.884971	0.298978
71	H	0.555206	0.128895	0.084929
72	H	0.566012	0.978258	0.305966
73	N	0.524063	0.029451	0.092758
74	H	0.531787	0.048027	0.121221
75	H	0.514992	0.992653	0.093831
76	C	0.437527	0.808534	0.32836
77	C	0.575045	0.193309	0.017407
78	H	0.463251	0.795929	0.324263
79	H	0.549127	0.20327	0.02859
80	C	0.863107	0.419984	0.015106
81	C	0.893172	0.439565	0.054591
82	C	0.888532	0.437371	0.306776
83	H	0.867831	0.423146	0.277595
84	C	0.06477	0.510887	0.022523
85	C	0.119745	0.544543	0.018539
86	C	0.140883	0.594696	0.331131
87	C	0.105024	0.609735	0.314244
88	C	0.050042	0.576068	0.318153
89	H	0.050872	0.474987	0.037816
90	H	0.144154	0.532199	0.031568
91	H	0.118604	0.645671	0.299076
92	H	0.874617	0.427114	0.084905
93	C	0.195028	0.629711	0.328417
94	C	0.810257	0.382442	0.017359
95	H	0.207637	0.668047	0.32435
96	H	0.80029	0.346591	0.028621
97	C	0.281443	0.641818	0.329673
98	N	0.307963	0.614716	0.329858
99	C	0.36174	0.640336	0.32962
100	N	0.388844	0.693959	0.329828
101	C	0.363223	0.722117	0.329626
102	N	0.309601	0.695599	0.329864
103	N	0.229183	0.614273	0.33099
104	N	0.387934	0.774377	0.330954
105	N	0.389293	0.615629	0.330935
106	C	0.722768	0.364089	0.340594
107	N	0.693246	0.3881	0.340447
108	C	0.639479	0.359391	0.340627
109	N	0.615469	0.305859	0.34048
110	C	0.644177	0.280802	0.340627
111	N	0.697709	0.310324	0.340447
112	N	0.774843	0.394359	0.340189
113	N	0.622381	0.228728	0.340249
114	N	0.609202	0.381186	0.340249
115	C	0.583571	0.443826	0.348446
116	C	0.564009	0.454347	0.387922
117	C	0.527169	0.472477	0.386608
118	C	0.51084	0.481635	0.344184
119	C	0.530348	0.470612	0.638079
120	C	0.566151	0.45181	0.640111
121	H	0.519655	0.477461	0.607271
122	H	0.580399	0.445355	0.610935
123	C	0.477037	0.503405	0.339578
124	C	0.492668	0.55459	0.35583
125	C	0.459021	0.575918	0.351832
126	C	0.408877	0.546911	0.664407
127	C	0.393845	0.496018	0.647512
128	C	0.427506	0.474698	0.651436
129	H	0.52855	0.576578	0.371161
130	H	0.47134	0.612648	0.364906
131	H	0.357912	0.473667	0.632336
132	H	0.576487	0.448292	0.418241
133	H	0.415057	0.437525	0.639315
134	N	0.508169	0.479418	0.426066
135	H	0.519121	0.471821	0.454537
136	H	0.480553	0.488643	0.427166
137	C	0.373853	0.566033	0.661706
138	C	0.621119	0.428529	0.350716
139	H	0.335519	0.540302	0.657651
140	H	0.657006	0.454462	0.361871
141	C	0.559736	0.140461	0.348469
142	C	0.549169	0.110366	0.387945
143	C	0.531027	0.055393	0.386631
144	C	0.521895	0.029913	0.344204
145	C	0.532966	0.060455	0.638099
146	C	0.551761	0.115058	0.640134
147	H	0.526173	0.042926	0.607291
148	H	0.558295	0.13578	0.610958
149	C	0.500144	0.974341	0.339601
150	C	0.448966	0.93878	0.35586
151	C	0.427647	0.883805	0.351862
152	C	0.456655	0.862679	0.664423
153	C	0.507536	0.898544	0.647512
154	C	0.528859	0.953527	0.651456
155	H	0.426974	0.95267	0.371191
156	H	0.390915	0.859391	0.36493
157	H	0.529882	0.884971	0.632312
158	H	0.555206	0.128895	0.418264
159	H	0.566012	0.978258	0.639299
160	N	0.524063	0.029451	0.42609
161	H	0.531787	0.048027	0.454554
162	H	0.514992	0.992653	0.427166
163	C	0.437527	0.808534	0.661696
164	C	0.575045	0.193309	0.350739
165	H	0.463251	0.795929	0.657597
166	H	0.549127	0.20327	0.361924
167	C	0.863107	0.419984	0.348439
168	C	0.893172	0.439565	0.387925
169	C	0.888532	0.437371	0.640111
170	H	0.867831	0.423146	0.610928
171	C	0.06477	0.510887	0.355857
172	C	0.119745	0.544543	0.351872
173	C	0.140883	0.594696	0.664463
174	C	0.105024	0.609735	0.647579
175	C	0.050042	0.576068	0.651487
176	H	0.050872	0.474987	0.371151
177	H	0.144154	0.532199	0.364903
178	H	0.118604	0.645671	0.632409
179	H	0.874617	0.427114	0.418238
180	C	0.195028	0.629711	0.661749
181	C	0.810257	0.382442	0.350692
182	H	0.207637	0.668047	0.657684
183	H	0.80029	0.346591	0.361954
184	C	0.281443	0.641818	0.663006
185	N	0.307963	0.614716	0.66319
186	C	0.36174	0.640336	0.662952
187	N	0.388844	0.693959	0.66316
188	C	0.363223	0.722117	0.662959
189	N	0.309601	0.695599	0.663197
190	N	0.229183	0.614273	0.664323
191	N	0.387934	0.774377	0.664286
192	N	0.389293	0.615629	0.66427
193	C	0.722768	0.364089	0.673927
194	N	0.693246	0.3881	0.67378
195	C	0.639479	0.359391	0.67396
196	N	0.615469	0.305859	0.673813
197	C	0.644177	0.280802	0.67396
198	N	0.697709	0.310324	0.673783
199	N	0.774843	0.394359	0.673522
200	N	0.622381	0.228728	0.673583
201	N	0.609202	0.381186	0.673583
202	C	0.583571	0.443826	0.681779
203	C	0.564009	0.454347	0.721255
204	C	0.527169	0.472477	0.719941
205	C	0.51084	0.481635	0.677517
206	C	0.530348	0.470612	0.971412
207	C	0.566151	0.45181	0.973444
208	H	0.519655	0.477461	0.940608
209	H	0.580399	0.445355	0.944268
210	C	0.477037	0.503405	0.672911
211	C	0.492668	0.55459	0.689167
212	C	0.459021	0.575918	0.685166
213	C	0.408877	0.546911	0.99774
214	C	0.393845	0.496018	0.980845
215	C	0.427506	0.474698	0.984773
216	H	0.52855	0.576578	0.704494
217	H	0.47134	0.612648	0.698239
218	H	0.357912	0.473667	0.965669
219	H	0.576487	0.448292	0.751574
220	H	0.415057	0.437525	0.972649
221	N	0.508169	0.479418	0.7594
222	H	0.519121	0.471821	0.787871
223	H	0.480553	0.488643	0.760499
224	C	0.373853	0.566033	0.995042
225	C	0.621119	0.428529	0.684049
226	H	0.335519	0.540302	0.990984
227	H	0.657006	0.454462	0.695204
228	C	0.559736	0.140461	0.681803
229	C	0.549169	0.110366	0.721278
230	C	0.531027	0.055393	0.719964
231	C	0.521895	0.029913	0.677537
232	C	0.532966	0.060455	0.971432
233	C	0.551761	0.115058	0.973468
234	H	0.526173	0.042926	0.940624
235	H	0.558295	0.13578	0.944291
236	C	0.500144	0.974341	0.672934
237	C	0.448966	0.93878	0.689194
238	C	0.427647	0.883805	0.685196
239	C	0.456655	0.862679	0.997756
240	C	0.507536	0.898544	0.980845
241	C	0.528859	0.953527	0.98479
242	H	0.426974	0.95267	0.704524
243	H	0.390915	0.859391	0.698263
244	H	0.529882	0.884971	0.965645
245	H	0.555206	0.128895	0.751598
246	H	0.566012	0.978258	0.972632
247	N	0.524063	0.029451	0.759423
248	H	0.531787	0.048027	0.787887
249	H	0.514992	0.992653	0.760499
250	C	0.437527	0.808534	0.995029
251	C	0.575045	0.193309	0.684076
252	H	0.463251	0.795929	0.99093
253	H	0.549127	0.20327	0.695258
254	C	0.863107	0.419984	0.681773
255	C	0.893172	0.439565	0.721258
256	C	0.888532	0.437371	0.973444
257	H	0.867831	0.423146	0.944261
258	C	0.06477	0.510887	0.68919
259	C	0.119745	0.544543	0.685206
260	C	0.140883	0.594696	0.9978
261	C	0.105024	0.609735	0.980912
262	C	0.050042	0.576068	0.98482
263	H	0.050872	0.474987	0.704484
264	H	0.144154	0.532199	0.698236
265	H	0.118604	0.645671	0.965742
266	H	0.874617	0.427114	0.751571
267	C	0.195028	0.629711	0.995086
268	C	0.810257	0.382442	0.684026
269	H	0.207637	0.668047	0.991017
270	H	0.80029	0.346591	0.695288
271	C	0.948141	0.476402	0.053289
272	C	0.973647	0.492714	0.01087
273	C	0.943133	0.473185	0.304756
274	H	0.960686	0.483892	0.273955
275	N	0.974052	0.495425	0.092753
276	H	0.955539	0.484374	0.121235
277	C	0.948141	0.476402	0.386621
278	C	0.973647	0.492714	0.344204
279	C	0.943133	0.473185	0.638089
280	H	0.960686	0.483892	0.607288
281	N	0.974052	0.495425	0.426087
282	H	0.955539	0.484374	0.454567
283	C	0.948141	0.476402	0.719958
284	C	0.973647	0.492714	0.677537
285	C	0.943133	0.473185	0.971422
286	H	0.960686	0.483892	0.940621
287	N	0.974052	0.495425	0.75942
288	H	0.955539	0.484374	0.787901
