data_C180H114N36O6_2018-02-15_10:48:12
#******************************************
#
# CIF file created by Zeo++
# Zeo++ is an open source package to
# analyze microporous materials
#
#*******************************************

_cell_length_a		25.6906   
_cell_length_b		25.6885   
_cell_length_c		29.4442   
_cell_angle_alpha		90   
_cell_angle_beta		90   
_cell_angle_gamma		90.03   

_symmetry_space_group_name_H-M		'P1'
_symmetry_Int_Tables_number		1
_symmetry_cell_setting		Monoclinic

loop_
_symmetry_equiv_pos_as_xyz
'+x,+y,+z'

loop_
_atom_site_label
_atom_site_type_symbol
_atom_site_fract_x
_atom_site_fract_y
_atom_site_fract_z
1	C	0.109342	0.143591	0.020966
2	C	0.147319	0.105573	0.019866
3	C	0.122967	0.056911	0.020135
4	N	0.071155	0.067445	0.021135
5	C	0.060662	0.119278	0.021488
6	C	0.01193	0.145852	0.022336
7	C	0.962614	0.120589	0.022679
8	N	0.952369	0.068871	0.022341
9	C	0.900644	0.058696	0.022494
10	C	0.876108	0.107209	0.023131
11	C	0.914154	0.145213	0.022986
12	C	0.875292	0.009408	0.022182
13	C	0.901786	0.960624	0.021436
14	N	0.953609	0.950059	0.021028
15	C	0.964107	0.898234	0.019866
16	C	0.915411	0.873943	0.01982
17	C	0.877421	0.91198	0.020528
18	C	0.012853	0.871666	0.019006
19	C	0.062172	0.896938	0.018936
20	N	0.072413	0.948654	0.019594
21	C	0.124131	0.958861	0.018845
22	C	0.148682	0.910368	0.017814
23	C	0.110636	0.872355	0.017611
24	C	0.149469	0.008151	0.019099
25	C	0.205253	0.008603	0.017284
26	C	0.316574	0.008984	0.013132
27	C	0.290294	0.017097	0.054794
28	C	0.23541	0.016831	0.056836
29	C	0.012385	0.815871	0.017195
30	C	0.011847	0.704529	0.012951
31	C	0.021187	0.73072	0.054466
32	C	0.021393	0.785604	0.056552
33	C	0.81947	0.009089	0.021772
34	C	0.790665	0.000136	0.061948
35	C	0.735742	0.000607	0.061383
36	C	0.707895	0.00971	0.020771
37	C	0.01242	0.201672	0.021972
38	C	0.004597	0.230543	0.062289
39	C	0.013226	0.313229	0.020826
40	C	0.005171	0.28546	0.061652
41	H	0.999269	0.30519	0.091414
42	H	0.998441	0.211705	0.092448
43	H	0.116829	0.182666	0.021161
44	H	0.186386	0.113023	0.019001
45	H	0.044708	0.041016	0.021444
46	H	0.980068	0.976475	0.021391
47	H	0.906958	0.184334	0.023098
48	H	0.837004	0.114473	0.023489
49	H	0.809552	0.993386	0.091982
50	H	0.71607	0.993981	0.091062
51	H	0.838333	0.904572	0.020348
52	H	0.907929	0.834871	0.019177
53	H	0.187786	0.903139	0.017112
54	H	0.117835	0.833252	0.016628
55	H	0.028218	0.803418	0.087074
56	H	0.027813	0.710127	0.083582
57	H	0.217523	0.022628	0.087482
58	H	0.310825	0.023034	0.084059
59	N	0.655701	0.0101	0.02279
60	N	0.01356	0.36542	0.022743
61	C	0.013108	0.561364	0.01842
62	N	0.023156	0.523401	0.0496
63	N	0.020963	0.473313	0.04132
64	C	0.017101	0.612885	0.03367
65	H	0.02543	0.618903	0.066217
66	C	0.459707	0.010258	0.018659
67	N	0.497722	0.019464	0.049996
68	N	0.547797	0.017439	0.041628
69	C	0.408207	0.013855	0.034018
70	H	0.402201	0.021267	0.066733
71	H	0.986728	0.476871	0.267032
72	C	0.024033	0.584468	0.235145
73	H	0.063849	0.58817	0.247812
74	H	0.014991	0.619561	0.215765
75	H	0.021962	0.550954	0.212378
76	O	0.94156	0.581501	0.262153
77	H	0.544042	0.986013	0.266695
78	C	0.436861	0.023264	0.234965
79	H	0.433904	0.063123	0.247665
80	H	0.401524	0.014732	0.215746
81	H	0.470214	0.020655	0.21207
82	O	0.438719	0.940654	0.262367
83	C	0.231493	0.000704	0.308986
84	C	0.286302	0.000786	0.307058
85	C	0.003185	0.789723	0.309052
86	C	0.00281	0.734908	0.307082
87	C	0.736953	0.019293	0.31404
88	C	0.791813	0.018753	0.314475
89	C	0.021079	0.229247	0.314457
90	C	0.021722	0.284106	0.313948
91	H	0.02893	0.302543	0.283846
92	H	0.027263	0.209486	0.284752
93	H	0.811517	0.025896	0.284901
94	H	0.71848	0.027321	0.28412
95	H	0.99661	0.810483	0.279937
96	H	0.99588	0.717216	0.276507
97	H	0.304067	0.994705	0.276381
98	H	0.210807	0.994635	0.279744
99	N	0.010593	0.652852	0.007877
100	N	0.368244	0.007988	0.008105
101	C	0.008073	0.453526	0.333352
102	C	0.99687	0.489939	0.298735
103	C	0.999339	0.544204	0.307298
104	C	0.987625	0.57871	0.272479
105	C	0.006196	0.400175	0.325147
106	H	0.997927	0.388405	0.293795
107	C	0.567508	0.005609	0.333397
108	C	0.53103	0.995363	0.298597
109	C	0.476786	0.997621	0.307262
110	C	0.442219	0.986826	0.272232
111	C	0.620842	0.003869	0.325087
112	H	0.63252	0.996644	0.293515
113	C	0.109342	0.143591	0.354298
114	C	0.147319	0.105573	0.353197
115	C	0.122967	0.056911	0.353469
116	N	0.071155	0.067445	0.354468
117	C	0.060662	0.119278	0.354821
118	C	0.01193	0.145852	0.35567
119	C	0.962614	0.120589	0.356013
120	N	0.952369	0.068871	0.355673
121	C	0.900644	0.058696	0.355826
122	C	0.876108	0.107209	0.356465
123	C	0.914154	0.145213	0.356319
124	C	0.875292	0.009408	0.355514
125	C	0.901786	0.960624	0.35477
126	N	0.953609	0.950059	0.354362
127	C	0.964107	0.898234	0.353201
128	C	0.915411	0.873943	0.353153
129	C	0.877421	0.91198	0.35386
130	C	0.012853	0.871666	0.352338
131	C	0.062172	0.896938	0.35227
132	N	0.072413	0.948654	0.352926
133	C	0.124131	0.958861	0.352178
134	C	0.148682	0.910368	0.351146
135	C	0.110636	0.872355	0.350946
136	C	0.149469	0.008151	0.352433
137	C	0.205253	0.008603	0.350616
138	C	0.231493	0.000704	0.642318
139	C	0.286302	0.000786	0.640392
140	C	0.316574	0.008984	0.346466
141	C	0.290294	0.017097	0.388128
142	C	0.23541	0.016831	0.390169
143	C	0.012385	0.815871	0.350528
144	C	0.003185	0.789723	0.642385
145	C	0.00281	0.734908	0.640416
146	C	0.011847	0.704529	0.346283
147	C	0.021187	0.73072	0.387798
148	C	0.021393	0.785604	0.389884
149	C	0.81947	0.009089	0.355106
150	C	0.790665	0.000136	0.39528
151	C	0.735742	0.000607	0.394717
152	C	0.707895	0.00971	0.354104
153	C	0.736953	0.019293	0.647375
154	C	0.791813	0.018753	0.647809
155	C	0.01242	0.201672	0.355306
156	C	0.004597	0.230543	0.395623
157	C	0.021079	0.229247	0.647789
158	C	0.021722	0.284106	0.647279
159	C	0.013226	0.313229	0.354159
160	C	0.005171	0.28546	0.394985
161	H	0.999269	0.30519	0.424746
162	H	0.998441	0.211705	0.425782
163	H	0.02893	0.302543	0.617178
164	H	0.027263	0.209486	0.618085
165	H	0.116829	0.182666	0.354495
166	H	0.186386	0.113023	0.352335
167	H	0.044708	0.041016	0.354777
168	H	0.980068	0.976475	0.354726
169	H	0.906958	0.184334	0.356431
170	H	0.837004	0.114473	0.356821
171	H	0.809552	0.993386	0.425314
172	H	0.71607	0.993981	0.424393
173	H	0.811517	0.025896	0.618235
174	H	0.71848	0.027321	0.617454
175	H	0.838333	0.904572	0.35368
176	H	0.907929	0.834871	0.352511
177	H	0.187786	0.903139	0.350446
178	H	0.117835	0.833252	0.349961
179	H	0.99661	0.810483	0.613269
180	H	0.99588	0.717216	0.609839
181	H	0.028218	0.803418	0.420406
182	H	0.027813	0.710127	0.416915
183	H	0.217523	0.022628	0.420813
184	H	0.310825	0.023034	0.417393
185	H	0.304067	0.994705	0.609713
186	H	0.210807	0.994635	0.613076
187	N	0.010593	0.652852	0.341212
188	N	0.655701	0.0101	0.356122
189	N	0.01356	0.36542	0.356074
190	N	0.368244	0.007988	0.341436
191	C	0.008073	0.453526	0.666686
192	C	0.99687	0.489939	0.632068
193	C	0.999339	0.544204	0.64063
194	C	0.013108	0.561364	0.351754
195	N	0.023156	0.523401	0.382932
196	N	0.020963	0.473313	0.374652
197	H	0.986728	0.476871	0.600364
198	C	0.987625	0.57871	0.605811
199	C	0.024033	0.584468	0.568479
200	H	0.063849	0.58817	0.581144
201	H	0.014991	0.619561	0.549097
202	H	0.021962	0.550954	0.545711
203	O	0.94156	0.581501	0.595487
204	C	0.006196	0.400175	0.65848
205	H	0.997927	0.388405	0.627126
206	C	0.017101	0.612885	0.367003
207	H	0.02543	0.618903	0.39955
208	C	0.567508	0.005609	0.66673
209	C	0.53103	0.995363	0.631928
210	C	0.476786	0.997621	0.640596
211	C	0.459707	0.010258	0.351992
212	N	0.497722	0.019464	0.383329
213	N	0.547797	0.017439	0.374961
214	H	0.544042	0.986013	0.600027
215	C	0.442219	0.986826	0.605563
216	C	0.436861	0.023264	0.568296
217	H	0.433904	0.063123	0.580998
218	H	0.401524	0.014732	0.54908
219	H	0.470214	0.020655	0.545402
220	O	0.438719	0.940654	0.5957
221	C	0.620842	0.003869	0.658419
222	H	0.63252	0.996644	0.626848
223	C	0.408207	0.013855	0.36735
224	H	0.402201	0.021267	0.400066
225	C	0.109342	0.143591	0.68763
226	C	0.147319	0.105573	0.68653
227	C	0.122967	0.056911	0.686802
228	N	0.071155	0.067445	0.6878
229	C	0.060662	0.119278	0.688153
230	C	0.01193	0.145852	0.689003
231	C	0.962614	0.120589	0.689346
232	N	0.952369	0.068871	0.689006
233	C	0.900644	0.058696	0.689159
234	C	0.876108	0.107209	0.689797
235	C	0.914154	0.145213	0.689651
236	C	0.875292	0.009408	0.688846
237	C	0.901786	0.960624	0.688102
238	N	0.953609	0.950059	0.687695
239	C	0.964107	0.898234	0.686533
240	C	0.915411	0.873943	0.686486
241	C	0.877421	0.91198	0.687196
242	C	0.012853	0.871666	0.685671
243	C	0.062172	0.896938	0.685603
244	N	0.072413	0.948654	0.686262
245	C	0.124131	0.958861	0.685511
246	C	0.148682	0.910368	0.684479
247	C	0.110636	0.872355	0.684278
248	C	0.149469	0.008151	0.685766
249	C	0.205253	0.008603	0.683949
250	C	0.231493	0.000704	0.97565
251	C	0.286302	0.000786	0.973725
252	C	0.316574	0.008984	0.679799
253	C	0.290294	0.017097	0.721461
254	C	0.23541	0.016831	0.723502
255	C	0.012385	0.815871	0.683861
256	C	0.003185	0.789723	0.975718
257	C	0.00281	0.734908	0.973748
258	C	0.011847	0.704529	0.679615
259	C	0.021187	0.73072	0.721131
260	C	0.021393	0.785604	0.723216
261	C	0.81947	0.009089	0.688439
262	C	0.790665	0.000136	0.728613
263	C	0.735742	0.000607	0.728049
264	C	0.707895	0.00971	0.687437
265	C	0.736953	0.019293	0.980707
266	C	0.791813	0.018753	0.981142
267	C	0.01242	0.201672	0.688639
268	C	0.004597	0.230543	0.728956
269	C	0.021079	0.229247	0.981122
270	C	0.021722	0.284106	0.980616
271	C	0.013226	0.313229	0.687491
272	C	0.005171	0.28546	0.728318
273	H	0.999269	0.30519	0.758079
274	H	0.998441	0.211705	0.759115
275	H	0.02893	0.302543	0.950511
276	H	0.027263	0.209486	0.951418
277	H	0.116829	0.182666	0.687827
278	H	0.186386	0.113023	0.685667
279	H	0.044708	0.041016	0.688109
280	H	0.980068	0.976475	0.688058
281	H	0.906958	0.184334	0.689763
282	H	0.837004	0.114473	0.690154
283	H	0.809552	0.993386	0.75865
284	H	0.71607	0.993981	0.757726
285	H	0.811517	0.025896	0.951567
286	H	0.71848	0.027321	0.950786
287	H	0.838333	0.904572	0.687016
288	H	0.907929	0.834871	0.685844
289	H	0.187786	0.903139	0.683779
290	H	0.117835	0.833252	0.683293
291	H	0.99661	0.810483	0.946602
292	H	0.99588	0.717216	0.943172
293	H	0.028218	0.803418	0.753739
294	H	0.027813	0.710127	0.750247
295	H	0.217523	0.022628	0.754146
296	H	0.310825	0.023034	0.750726
297	H	0.304067	0.994705	0.943046
298	H	0.210807	0.994635	0.946408
299	N	0.010593	0.652852	0.674545
300	N	0.655701	0.0101	0.689458
301	N	0.01356	0.36542	0.68941
302	N	0.368244	0.007988	0.674769
303	C	0.008073	0.453526	1.8e-05
304	C	0.99687	0.489939	0.9654
305	C	0.999339	0.544204	0.973962
306	C	0.013108	0.561364	0.685087
307	N	0.023156	0.523401	0.716268
308	N	0.020963	0.473313	0.707984
309	H	0.986728	0.476871	0.933696
310	C	0.987625	0.57871	0.939144
311	C	0.024033	0.584468	0.901812
312	H	0.063849	0.58817	0.914477
313	H	0.014991	0.619561	0.88243
314	H	0.021962	0.550954	0.879044
315	O	0.94156	0.581501	0.928819
316	C	0.006196	0.400175	0.991813
317	H	0.997927	0.388405	0.960462
318	C	0.017101	0.612885	0.700336
319	H	0.02543	0.618903	0.732882
320	C	0.567508	0.005609	6.2e-05
321	C	0.53103	0.995363	0.965261
322	C	0.476786	0.997621	0.973928
323	C	0.459707	0.010258	0.685324
324	N	0.497722	0.019464	0.716662
325	N	0.547797	0.017439	0.708293
326	H	0.544042	0.986013	0.93336
327	C	0.442219	0.986826	0.938899
328	C	0.436861	0.023264	0.901632
329	H	0.433904	0.063123	0.914331
330	H	0.401524	0.014732	0.882413
331	H	0.470214	0.020655	0.878735
332	O	0.438719	0.940654	0.929033
333	C	0.620842	0.003869	0.991752
334	H	0.63252	0.996644	0.96018
335	C	0.408207	0.013855	0.700682
336	H	0.402201	0.021267	0.733398
