data_C162H117N27_2018-02-15_10:45:54
#******************************************
#
# CIF file created by Zeo++
# Zeo++ is an open source package to
# analyze microporous materials
#
#*******************************************

_cell_length_a		29.4637   
_cell_length_b		29.4637   
_cell_length_c		29.985   
_cell_angle_alpha		90   
_cell_angle_beta		90   
_cell_angle_gamma		120   

_symmetry_space_group_name_H-M		'P1'
_symmetry_Int_Tables_number		1
_symmetry_cell_setting		Monoclinic

loop_
_symmetry_equiv_pos_as_xyz
'+x,+y,+z'

loop_
_atom_site_label
_atom_site_type_symbol
_atom_site_fract_x
_atom_site_fract_y
_atom_site_fract_z
1	C	0.360971	0.63854	0.003265
2	C	0.305549	0.611875	0.003791
3	C	0.278066	0.639645	0.003318
4	C	0.306823	0.695069	0.003795
5	C	0.362077	0.722553	0.003281
6	C	0.388743	0.693795	0.003763
7	H	0.287309	0.715667	0.0047
8	H	0.428854	0.713308	0.004657
9	H	0.284952	0.571763	0.004694
10	N	0.388543	0.614034	0.004392
11	N	0.225988	0.612087	0.004438
12	N	0.386591	0.774633	0.004398
13	C	0.64115	0.36319	0.998129
14	C	0.696337	0.388646	0.997555
15	C	0.722542	0.359472	0.998072
16	C	0.69281	0.304284	0.997552
17	C	0.637432	0.278079	0.998119
18	C	0.611977	0.307811	0.997595
19	H	0.711578	0.28294	0.997165
20	H	0.571863	0.289042	0.997235
21	H	0.717684	0.428761	0.997185
22	N	0.61815	0.39211	0.997648
23	N	0.774456	0.382481	0.997568
24	N	0.608517	0.226162	0.997632
25	C	0.560448	0.421013	0.019517
26	C	0.539862	0.433295	0.05728
27	C	0.512613	0.461446	0.053819
28	C	0.506356	0.478243	0.010818
29	C	0.527632	0.46674	0.306426
30	C	0.554347	0.43866	0.310678
31	H	0.522942	0.477863	0.275173
32	H	0.567648	0.42965	0.282373
33	C	0.476153	0.502988	0.00361
34	C	0.493063	0.554194	0.019311
35	C	0.461605	0.577274	0.013397
36	C	0.41243	0.549922	0.324847
37	C	0.396317	0.498951	0.308554
38	C	0.427642	0.475829	0.31446
39	H	0.528134	0.574785	0.035621
40	H	0.474964	0.614242	0.025638
41	H	0.361021	0.477604	0.292683
42	H	0.54349	0.420166	0.088009
43	H	0.414201	0.438507	0.302985
44	N	0.491876	0.469417	0.091599
45	H	0.496092	0.45686	0.120477
46	H	0.471133	0.486641	0.09107
47	C	0.379555	0.570834	0.319391
48	C	0.582377	0.389095	0.024111
49	H	0.347595	0.551451	0.300612
50	H	0.569918	0.363106	0.048932
51	C	0.579613	0.139559	0.019502
52	C	0.567322	0.106695	0.057269
53	C	0.539184	0.051294	0.053807
54	C	0.522391	0.028236	0.010807
55	C	0.533892	0.061013	0.306413
56	C	0.561979	0.115809	0.310662
57	H	0.522787	0.045198	0.27516
58	H	0.570994	0.138116	0.282357
59	C	0.497643	0.973287	0.003603
60	C	0.446437	0.938995	0.019309
61	C	0.423359	0.884457	0.013406
62	C	0.450695	0.862628	0.324834
63	C	0.501662	0.897484	0.308535
64	C	0.524784	0.951932	0.314432
65	H	0.425862	0.953472	0.035652
66	H	0.386399	0.860849	0.025662
67	H	0.522991	0.883532	0.292634
68	H	0.580439	0.123454	0.088
69	H	0.5621	0.97581	0.302945
70	N	0.53119	0.022586	0.091592
71	H	0.543802	0.039365	0.12046
72	H	0.514032	0.984621	0.091054
73	C	0.42978	0.808843	0.319384
74	C	0.611522	0.193405	0.024102
75	H	0.449153	0.796259	0.300595
76	H	0.637503	0.206939	0.048932
77	C	0.861053	0.440138	0.0195
78	C	0.893921	0.460685	0.057271
79	C	0.949319	0.487982	0.053808
80	C	0.972379	0.494338	0.010797
81	C	0.939604	0.473074	0.3064
82	C	0.884812	0.446349	0.310652
83	H	0.955422	0.4778	0.275146
84	H	0.862497	0.433013	0.282349
85	C	0.027331	0.524523	0.003604
86	C	0.061611	0.507604	0.019335
87	C	0.116153	0.539051	0.013443
88	C	0.137998	0.588208	0.324853
89	C	0.103157	0.604323	0.308527
90	C	0.048707	0.573017	0.314428
91	H	0.047121	0.472556	0.035685
92	H	0.13975	0.525691	0.025711
93	H	0.117116	0.639587	0.2926
94	H	0.87716	0.456982	0.088009
95	H	0.024836	0.586444	0.302897
96	N	0.978019	0.508678	0.0916
97	H	0.961236	0.504512	0.120465
98	H	0.015977	0.529594	0.091049
99	C	0.191787	0.621061	0.319399
100	C	0.807201	0.418152	0.024114
101	H	0.204377	0.652998	0.300587
102	H	0.793651	0.430497	0.049003
103	C	0.360971	0.63854	0.336598
104	C	0.305549	0.611875	0.337125
105	C	0.278066	0.639645	0.336652
106	C	0.306823	0.695069	0.337128
107	C	0.362077	0.722553	0.336615
108	C	0.388743	0.693795	0.337095
109	H	0.287309	0.715667	0.338032
110	H	0.428854	0.713308	0.337989
111	H	0.284952	0.571763	0.338029
112	N	0.388543	0.614034	0.337725
113	N	0.225988	0.612087	0.337772
114	N	0.386591	0.774633	0.337732
115	C	0.64115	0.36319	0.331463
116	C	0.696337	0.388646	0.330888
117	C	0.722542	0.359472	0.331404
118	C	0.69281	0.304284	0.330885
119	C	0.637432	0.278079	0.331453
120	C	0.611977	0.307811	0.330927
121	H	0.711578	0.28294	0.330499
122	H	0.571863	0.289042	0.330569
123	H	0.717684	0.428761	0.330519
124	N	0.61815	0.39211	0.33098
125	N	0.774456	0.382481	0.330903
126	N	0.608517	0.226162	0.330963
127	C	0.560448	0.421013	0.35285
128	C	0.539862	0.433295	0.390615
129	C	0.512613	0.461446	0.387153
130	C	0.506356	0.478243	0.344152
131	C	0.527632	0.46674	0.63976
132	C	0.554347	0.43866	0.644012
133	H	0.522942	0.477863	0.608507
134	H	0.567648	0.42965	0.615708
135	C	0.476153	0.502988	0.336945
136	C	0.493063	0.554194	0.352646
137	C	0.461605	0.577274	0.34673
138	C	0.41243	0.549922	0.658179
139	C	0.396317	0.498951	0.641887
140	C	0.427642	0.475829	0.647794
141	H	0.528134	0.574785	0.368954
142	H	0.474964	0.614242	0.358973
143	H	0.361021	0.477604	0.626016
144	H	0.54349	0.420166	0.421344
145	H	0.414201	0.438507	0.636318
146	N	0.491876	0.469417	0.424932
147	H	0.496092	0.45686	0.45381
148	H	0.471133	0.486641	0.424402
149	C	0.379555	0.570834	0.652726
150	C	0.582377	0.389095	0.357445
151	H	0.347595	0.551451	0.633943
152	H	0.569918	0.363106	0.382264
153	C	0.579613	0.139559	0.352836
154	C	0.567322	0.106695	0.390602
155	C	0.539184	0.051294	0.38714
156	C	0.522391	0.028236	0.344142
157	C	0.533892	0.061013	0.639746
158	C	0.561979	0.115809	0.643995
159	H	0.522787	0.045198	0.608494
160	H	0.570994	0.138116	0.615691
161	C	0.497643	0.973287	0.336938
162	C	0.446437	0.938995	0.352643
163	C	0.423359	0.884457	0.34674
164	C	0.450695	0.862628	0.658169
165	C	0.501662	0.897484	0.641867
166	C	0.524784	0.951932	0.647767
167	H	0.425862	0.953472	0.368984
168	H	0.386399	0.860849	0.358996
169	H	0.522991	0.883532	0.625966
170	H	0.580439	0.123454	0.421334
171	H	0.5621	0.97581	0.636278
172	N	0.53119	0.022586	0.424926
173	H	0.543802	0.039365	0.453793
174	H	0.514032	0.984621	0.424389
175	C	0.42978	0.808843	0.652716
176	C	0.611522	0.193405	0.357435
177	H	0.449153	0.796259	0.633927
178	H	0.637503	0.206939	0.382264
179	C	0.861053	0.440138	0.352833
180	C	0.893921	0.460685	0.390605
181	C	0.949319	0.487982	0.38714
182	C	0.972379	0.494338	0.344132
183	C	0.939604	0.473074	0.639733
184	C	0.884812	0.446349	0.643985
185	H	0.955422	0.4778	0.608481
186	H	0.862497	0.433013	0.615681
187	C	0.027331	0.524523	0.336938
188	C	0.061611	0.507604	0.35267
189	C	0.116153	0.539051	0.346777
190	C	0.137998	0.588208	0.658185
191	C	0.103157	0.604323	0.641861
192	C	0.048707	0.573017	0.64776
193	H	0.047121	0.472556	0.369018
194	H	0.13975	0.525691	0.359046
195	H	0.117116	0.639587	0.625933
196	H	0.87716	0.456982	0.421344
197	H	0.024836	0.586444	0.636231
198	N	0.978019	0.508678	0.424932
199	H	0.961236	0.504512	0.4538
200	H	0.015977	0.529594	0.424382
201	C	0.191787	0.621061	0.652733
202	C	0.807201	0.418152	0.357449
203	H	0.204377	0.652998	0.63392
204	H	0.793651	0.430497	0.382338
205	C	0.360971	0.63854	0.669931
206	C	0.305549	0.611875	0.670458
207	C	0.278066	0.639645	0.669985
208	C	0.306823	0.695069	0.670462
209	C	0.362077	0.722553	0.669948
210	C	0.388743	0.693795	0.670428
211	H	0.287309	0.715667	0.671369
212	H	0.428854	0.713308	0.671325
213	H	0.284952	0.571763	0.671362
214	N	0.388543	0.614034	0.671059
215	N	0.225988	0.612087	0.671105
216	N	0.386591	0.774633	0.671065
217	C	0.64115	0.36319	0.664795
218	C	0.696337	0.388646	0.664222
219	C	0.722542	0.359472	0.664739
220	C	0.69281	0.304284	0.664219
221	C	0.637432	0.278079	0.664785
222	C	0.611977	0.307811	0.664262
223	H	0.711578	0.28294	0.663832
224	H	0.571863	0.289042	0.663902
225	H	0.717684	0.428761	0.663852
226	N	0.61815	0.39211	0.664312
227	N	0.774456	0.382481	0.664235
228	N	0.608517	0.226162	0.664295
229	C	0.560448	0.421013	0.686183
230	C	0.539862	0.433295	0.723948
231	C	0.512613	0.461446	0.720487
232	C	0.506356	0.478243	0.677485
233	C	0.527632	0.46674	0.973093
234	C	0.554347	0.43866	0.977345
235	H	0.522942	0.477863	0.941841
236	H	0.567648	0.42965	0.949041
237	C	0.476153	0.502988	0.670278
238	C	0.493063	0.554194	0.685979
239	C	0.461605	0.577274	0.680063
240	C	0.41243	0.549922	0.991512
241	C	0.396317	0.498951	0.975221
242	C	0.427642	0.475829	0.981127
243	H	0.528134	0.574785	0.702288
244	H	0.474964	0.614242	0.692306
245	H	0.361021	0.477604	0.959349
246	H	0.54349	0.420166	0.754677
247	H	0.414201	0.438507	0.969651
248	N	0.491876	0.469417	0.758265
249	H	0.496092	0.45686	0.787143
250	H	0.471133	0.486641	0.757739
251	C	0.379555	0.570834	0.986059
252	C	0.582377	0.389095	0.690778
253	H	0.347595	0.551451	0.96728
254	H	0.569918	0.363106	0.715601
255	C	0.579613	0.139559	0.686169
256	C	0.567322	0.106695	0.723935
257	C	0.539184	0.051294	0.720473
258	C	0.522391	0.028236	0.677475
259	C	0.533892	0.061013	0.973079
260	C	0.561979	0.115809	0.977328
261	H	0.522787	0.045198	0.941827
262	H	0.570994	0.138116	0.949024
263	C	0.497643	0.973287	0.670272
264	C	0.446437	0.938995	0.685976
265	C	0.423359	0.884457	0.680073
266	C	0.450695	0.862628	0.991502
267	C	0.501662	0.897484	0.975204
268	C	0.524784	0.951932	0.9811
269	H	0.425862	0.953472	0.702318
270	H	0.386399	0.860849	0.692329
271	H	0.522991	0.883532	0.959303
272	H	0.580439	0.123454	0.754667
273	H	0.5621	0.97581	0.969611
274	N	0.53119	0.022586	0.758259
275	H	0.543802	0.039365	0.787127
276	H	0.514032	0.984621	0.757722
277	C	0.42978	0.808843	0.986049
278	C	0.611522	0.193405	0.690768
279	H	0.449153	0.796259	0.967263
280	H	0.637503	0.206939	0.715601
281	C	0.861053	0.440138	0.686166
282	C	0.893921	0.460685	0.723938
283	C	0.949319	0.487982	0.720473
284	C	0.972379	0.494338	0.677465
285	C	0.939604	0.473074	0.973066
286	C	0.884812	0.446349	0.977318
287	H	0.955422	0.4778	0.941814
288	H	0.862497	0.433013	0.949014
289	C	0.027331	0.524523	0.670272
290	C	0.061611	0.507604	0.686003
291	C	0.116153	0.539051	0.68011
292	C	0.137998	0.588208	0.991519
293	C	0.103157	0.604323	0.975194
294	C	0.048707	0.573017	0.981093
295	H	0.047121	0.472556	0.702351
296	H	0.13975	0.525691	0.692379
297	H	0.117116	0.639587	0.959266
298	H	0.87716	0.456982	0.754677
299	H	0.024836	0.586444	0.969564
300	N	0.978019	0.508678	0.758265
301	H	0.961236	0.504512	0.787133
302	H	0.015977	0.529594	0.757715
303	C	0.191787	0.621061	0.986066
304	C	0.807201	0.418152	0.690782
305	H	0.204377	0.652998	0.967253
306	H	0.793651	0.430497	0.715671
