data_C192H138N24_2018-02-15_10:47:48
#******************************************
#
# CIF file created by Zeo++
# Zeo++ is an open source package to
# analyze microporous materials
#
#*******************************************

_cell_length_a		25.7953   
_cell_length_b		25.7951   
_cell_length_c		29.3524   
_cell_angle_alpha		90   
_cell_angle_beta		90   
_cell_angle_gamma		90.0372   

_symmetry_space_group_name_H-M		'P1'
_symmetry_Int_Tables_number		1
_symmetry_cell_setting		Monoclinic

loop_
_symmetry_equiv_pos_as_xyz
'+x,+y,+z'

loop_
_atom_site_label
_atom_site_type_symbol
_atom_site_fract_x
_atom_site_fract_y
_atom_site_fract_z
1	C	0.785043	0.018789	0.039143
2	C	0.730475	0.014351	0.0369
3	C	0.017254	0.235033	0.038857
4	C	0.013094	0.289625	0.036708
5	C	0.290142	0.006505	0.03107
6	C	0.235681	0.004911	0.036647
7	C	0.004204	0.78468	0.036782
8	C	0.005583	0.730212	0.031189
9	H	0.998602	0.707305	0.058972
10	H	0.996208	0.799667	0.068281
11	H	0.220719	0.996402	0.068056
12	H	0.313053	0.999178	0.058777
13	H	0.028265	0.218184	0.068895
14	H	0.020891	0.310875	0.06535
15	H	0.70912	0.022254	0.065453
16	H	0.801758	0.03023	0.069119
17	C	0.021478	0.536462	0.049111
18	C	0.02337	0.481564	0.046322
19	H	0.030939	0.460611	0.075246
20	C	0.031116	0.560416	0.09447
21	H	0.029214	0.602634	0.093971
22	H	0.06959	0.549449	0.106608
23	N	0.009934	0.618323	0.011081
24	C	0.483835	0.022378	0.049145
25	C	0.538738	0.024178	0.046402
26	H	0.559688	0.031597	0.075367
27	C	0.459868	0.031894	0.094513
28	H	0.417646	0.030075	0.093978
29	H	0.470949	0.070302	0.106771
30	N	0.401987	0.011118	0.011019
31	C	0.916013	0.874235	0.338034
32	C	0.877301	0.911215	0.338261
33	C	0.900264	0.960333	0.337968
34	N	0.952162	0.950932	0.338688
35	C	0.96393	0.899512	0.338398
36	C	0.013044	0.873999	0.337758
37	C	0.061537	0.900558	0.338105
38	N	0.07071	0.952316	0.33921
39	C	0.122031	0.963718	0.338325
40	C	0.147443	0.915941	0.336816
41	C	0.110387	0.87724	0.336998
42	C	0.146334	0.013352	0.337722
43	C	0.118575	0.061298	0.337819
44	N	0.066708	0.070811	0.33913
45	C	0.054969	0.122219	0.33753
46	C	0.10293	0.14736	0.335709
47	C	0.14162	0.110323	0.336206
48	C	0.005837	0.147769	0.336876
49	C	0.957334	0.121117	0.337278
50	N	0.948148	0.069334	0.337841
51	C	0.896805	0.057868	0.337418
52	C	0.87137	0.105624	0.336449
53	C	0.908398	0.144332	0.336936
54	C	0.872433	0.008245	0.33716
55	C	0.816631	0.00633	0.334563
56	C	0.705659	0.996642	0.330127
57	C	0.737254	0.984613	0.292128
58	C	0.791635	0.989959	0.294122
59	C	0.004823	0.203591	0.334165
60	C	0.995854	0.314624	0.329878
61	C	0.983967	0.283179	0.291739
62	C	0.988991	0.22877	0.293652
63	C	0.201903	0.014987	0.333012
64	C	0.224437	0.026291	0.290272
65	C	0.278689	0.028143	0.284846
66	C	0.31296	0.018384	0.321687
67	C	0.013901	0.818423	0.333042
68	C	0.024711	0.795879	0.290216
69	C	0.016967	0.707378	0.32171
70	C	0.026368	0.741629	0.284779
71	H	0.034766	0.727347	0.253075
72	H	0.031854	0.818961	0.26254
73	H	0.909421	0.835178	0.337657
74	H	0.838614	0.902729	0.33827
75	H	0.977894	0.97786	0.338408
76	H	0.040972	0.043928	0.340511
77	H	0.118457	0.838484	0.335934
78	H	0.18649	0.909544	0.335411
79	H	0.201342	0.033561	0.262639
80	H	0.292965	0.03685	0.253202
81	H	0.180332	0.118624	0.334981
82	H	0.109549	0.186346	0.3337
83	H	0.832309	0.112044	0.335639
84	H	0.900158	0.183058	0.336647
85	H	0.979266	0.207385	0.265545
86	H	0.970708	0.299634	0.262204
87	H	0.813125	0.980267	0.266074
88	H	0.720928	0.971079	0.262627
89	C	0.985806	0.367707	0.328291
90	C	0.366728	0.021502	0.31445
91	C	0.020034	0.653616	0.314456
92	C	0.652561	0.986606	0.328416
93	H	0.951624	0.378964	0.316028
94	H	0.378667	0.033735	0.284076
95	H	0.032062	0.641711	0.284011
96	H	0.641258	0.952494	0.316007
97	C	0.015112	0.454528	0.338421
98	C	0.005598	0.483933	0.298231
99	C	0.002726	0.53873	0.301274
100	C	0.011465	0.566018	0.009149
101	H	0.994808	0.559358	0.272323
102	H	0.002277	0.546553	0.118822
103	C	8e-06	0.460572	0.252135
104	H	0.008258	0.419207	0.251386
105	H	0.026921	0.479122	0.22848
106	H	0.960528	0.46655	0.239814
107	N	0.019173	0.402576	0.339836
108	C	0.565788	0.016015	0.338501
109	C	0.536398	0.006718	0.298257
110	C	0.481588	0.003965	0.301244
111	C	0.454288	0.012587	0.009128
112	H	0.460955	0.9962	0.272257
113	H	0.473617	0.002938	0.118794
114	C	0.559798	0.001232	0.252172
115	H	0.601195	0.00937	0.251491
116	H	0.541392	0.028286	0.228575
117	H	0.553678	0.961818	0.239731
118	N	0.617749	0.019973	0.339989
119	C	0.916013	0.874235	0.671367
120	C	0.877301	0.911215	0.671595
121	C	0.900264	0.960333	0.671302
122	N	0.952162	0.950932	0.672021
123	C	0.96393	0.899512	0.671731
124	C	0.013044	0.873999	0.671091
125	C	0.061537	0.900558	0.671438
126	N	0.07071	0.952316	0.672542
127	C	0.122031	0.963718	0.671656
128	C	0.147443	0.915941	0.67015
129	C	0.110387	0.87724	0.670331
130	C	0.146334	0.013352	0.671057
131	C	0.118575	0.061298	0.671152
132	N	0.066708	0.070811	0.672464
133	C	0.054969	0.122219	0.670862
134	C	0.10293	0.14736	0.669043
135	C	0.14162	0.110323	0.669541
136	C	0.005837	0.147769	0.670208
137	C	0.957334	0.121117	0.67061
138	N	0.948148	0.069334	0.671172
139	C	0.896805	0.057868	0.67075
140	C	0.87137	0.105624	0.669782
141	C	0.908398	0.144332	0.67027
142	C	0.872433	0.008245	0.670495
143	C	0.816631	0.00633	0.667895
144	C	0.785043	0.018789	0.372478
145	C	0.730475	0.014351	0.370233
146	C	0.705659	0.996642	0.663459
147	C	0.737254	0.984613	0.625462
148	C	0.791635	0.989959	0.627455
149	C	0.004823	0.203591	0.667496
150	C	0.017254	0.235033	0.372191
151	C	0.013094	0.289625	0.370042
152	C	0.995854	0.314624	0.663211
153	C	0.983967	0.283179	0.625074
154	C	0.988991	0.22877	0.626985
155	C	0.201903	0.014987	0.666345
156	C	0.224437	0.026291	0.623606
157	C	0.278689	0.028143	0.618178
158	C	0.31296	0.018384	0.65502
159	C	0.290142	0.006505	0.364403
160	C	0.235681	0.004911	0.36998
161	C	0.013901	0.818423	0.666376
162	C	0.024711	0.795879	0.623548
163	C	0.004204	0.78468	0.370113
164	C	0.005583	0.730212	0.364523
165	C	0.016967	0.707378	0.655044
166	C	0.026368	0.741629	0.61811
167	H	0.034766	0.727347	0.586409
168	H	0.031854	0.818961	0.595874
169	H	0.998602	0.707305	0.392306
170	H	0.996208	0.799667	0.401613
171	H	0.909421	0.835178	0.670989
172	H	0.838614	0.902729	0.671602
173	H	0.977894	0.97786	0.671741
174	H	0.040972	0.043928	0.673843
175	H	0.118457	0.838484	0.669268
176	H	0.18649	0.909544	0.668743
177	H	0.201342	0.033561	0.595972
178	H	0.292965	0.03685	0.586535
179	H	0.220719	0.996402	0.401388
180	H	0.313053	0.999178	0.392112
181	H	0.180332	0.118624	0.668314
182	H	0.109549	0.186346	0.667033
183	H	0.832309	0.112044	0.668972
184	H	0.900158	0.183058	0.66998
185	H	0.028265	0.218184	0.402227
186	H	0.020891	0.310875	0.398683
187	H	0.979266	0.207385	0.598878
188	H	0.970708	0.299634	0.595536
189	H	0.813125	0.980267	0.599407
190	H	0.720928	0.971079	0.595959
191	H	0.70912	0.022254	0.398786
192	H	0.801758	0.03023	0.402451
193	C	0.985806	0.367707	0.661623
194	C	0.366728	0.021502	0.647784
195	C	0.020034	0.653616	0.647788
196	C	0.652561	0.986606	0.661749
197	H	0.951624	0.378964	0.649362
198	H	0.378667	0.033735	0.617409
199	H	0.032062	0.641711	0.617344
200	H	0.641258	0.952494	0.649341
201	C	0.015112	0.454528	0.671755
202	C	0.005598	0.483933	0.631564
203	C	0.002726	0.53873	0.634606
204	C	0.011465	0.566018	0.342483
205	C	0.021478	0.536462	0.382443
206	H	0.994808	0.559358	0.605655
207	C	0.02337	0.481564	0.379656
208	H	0.030939	0.460611	0.40858
209	C	0.031116	0.560416	0.427802
210	H	0.029214	0.602634	0.427305
211	H	0.06959	0.549449	0.439941
212	H	0.002277	0.546553	0.452154
213	C	8e-06	0.460572	0.585469
214	H	0.008258	0.419207	0.584719
215	H	0.026921	0.479122	0.561815
216	H	0.960528	0.46655	0.573146
217	N	0.019173	0.402576	0.673169
218	N	0.009934	0.618323	0.344415
219	C	0.565788	0.016015	0.671833
220	C	0.536398	0.006718	0.631591
221	C	0.481588	0.003965	0.634576
222	C	0.454288	0.012587	0.34246
223	C	0.483835	0.022378	0.382477
224	H	0.460955	0.9962	0.60559
225	C	0.538738	0.024178	0.379734
226	H	0.559688	0.031597	0.4087
227	C	0.459868	0.031894	0.427846
228	H	0.417646	0.030075	0.427311
229	H	0.470949	0.070302	0.440104
230	H	0.473617	0.002938	0.452127
231	C	0.559798	0.001232	0.585503
232	H	0.601195	0.00937	0.584825
233	H	0.541392	0.028286	0.561907
234	H	0.553678	0.961818	0.573065
235	N	0.617749	0.019973	0.673322
236	N	0.401987	0.011118	0.344354
237	C	0.916013	0.874235	0.004699
238	C	0.877301	0.911215	0.004928
239	C	0.900264	0.960333	0.004635
240	N	0.952162	0.950932	0.005353
241	C	0.96393	0.899512	0.005064
242	C	0.013044	0.873999	0.004423
243	C	0.061537	0.900558	0.004771
244	N	0.07071	0.952316	0.005875
245	C	0.122031	0.963718	0.004989
246	C	0.147443	0.915941	0.003483
247	C	0.110387	0.87724	0.003664
248	C	0.146334	0.013352	0.004389
249	C	0.118575	0.061298	0.004485
250	N	0.066708	0.070811	0.005796
251	C	0.054969	0.122219	0.004195
252	C	0.10293	0.14736	0.002376
253	C	0.14162	0.110323	0.002873
254	C	0.005837	0.147769	0.003541
255	C	0.957334	0.121117	0.003943
256	N	0.948148	0.069334	0.004505
257	C	0.896805	0.057868	0.004086
258	C	0.87137	0.105624	0.003115
259	C	0.908398	0.144332	0.003602
260	C	0.872433	0.008245	0.003827
261	C	0.816631	0.00633	0.001228
262	C	0.785043	0.018789	0.70581
263	C	0.730475	0.014351	0.703565
264	C	0.705659	0.996642	0.996792
265	C	0.737254	0.984613	0.958795
266	C	0.791635	0.989959	0.960788
267	C	0.004823	0.203591	0.000829
268	C	0.017254	0.235033	0.705524
269	C	0.013094	0.289625	0.703374
270	C	0.995854	0.314624	0.996543
271	C	0.983967	0.283179	0.958407
272	C	0.988991	0.22877	0.960318
273	C	0.201903	0.014987	0.999678
274	C	0.224437	0.026291	0.956938
275	C	0.278689	0.028143	0.951511
276	C	0.31296	0.018384	0.988353
277	C	0.290142	0.006505	0.697736
278	C	0.235681	0.004911	0.703313
279	C	0.013901	0.818423	0.999708
280	C	0.024711	0.795879	0.95688
281	C	0.004204	0.78468	0.703446
282	C	0.005583	0.730212	0.697855
283	C	0.016967	0.707378	0.988377
284	C	0.026368	0.741629	0.951443
285	H	0.034766	0.727347	0.919742
286	H	0.031854	0.818961	0.929206
287	H	0.998602	0.707305	0.725638
288	H	0.996208	0.799667	0.734946
289	H	0.909421	0.835178	0.004325
290	H	0.838614	0.902729	0.004938
291	H	0.977894	0.97786	0.005074
292	H	0.040972	0.043928	0.007176
293	H	0.118457	0.838484	0.002601
294	H	0.18649	0.909544	0.002076
295	H	0.201342	0.033561	0.929305
296	H	0.292965	0.03685	0.919868
297	H	0.220719	0.996402	0.734721
298	H	0.313053	0.999178	0.725444
299	H	0.180332	0.118624	0.001647
300	H	0.109549	0.186346	0.000366
301	H	0.832309	0.112044	0.002304
302	H	0.900158	0.183058	0.003313
303	H	0.028265	0.218184	0.735559
304	H	0.020891	0.310875	0.732016
305	H	0.979266	0.207385	0.932211
306	H	0.970708	0.299634	0.928869
307	H	0.813125	0.980267	0.932739
308	H	0.720928	0.971079	0.929291
309	H	0.70912	0.022254	0.732118
310	H	0.801758	0.03023	0.735784
311	C	0.985806	0.367707	0.994956
312	C	0.366728	0.021502	0.981117
313	C	0.020034	0.653616	0.981124
314	C	0.652561	0.986606	0.995082
315	H	0.951624	0.378964	0.982694
316	H	0.378667	0.033735	0.950741
317	H	0.032062	0.641711	0.950676
318	H	0.641258	0.952494	0.982674
319	C	0.015112	0.454528	0.005088
320	C	0.005598	0.483933	0.964897
321	C	0.002726	0.53873	0.967939
322	C	0.011465	0.566018	0.675816
323	C	0.021478	0.536462	0.715775
324	H	0.994808	0.559358	0.938987
325	C	0.02337	0.481564	0.712989
326	H	0.030939	0.460611	0.741913
327	C	0.031116	0.560416	0.761135
328	H	0.029214	0.602634	0.760637
329	H	0.06959	0.549449	0.773273
330	H	0.002277	0.546553	0.785487
331	C	8e-06	0.460572	0.918802
332	H	0.008258	0.419207	0.918052
333	H	0.026921	0.479122	0.895148
334	H	0.960528	0.46655	0.906479
335	N	0.019173	0.402576	0.006502
336	N	0.009934	0.618323	0.677748
337	C	0.565788	0.016015	0.005166
338	C	0.536398	0.006718	0.964924
339	C	0.481588	0.003965	0.967908
340	C	0.454288	0.012587	0.675796
341	C	0.483835	0.022378	0.715809
342	H	0.460955	0.9962	0.938923
343	C	0.538738	0.024178	0.713067
344	H	0.559688	0.031597	0.742032
345	C	0.459868	0.031894	0.761179
346	H	0.417646	0.030075	0.760644
347	H	0.470949	0.070302	0.773437
348	H	0.473617	0.002938	0.78546
349	C	0.559798	0.001232	0.918836
350	H	0.601195	0.00937	0.918158
351	H	0.541392	0.028286	0.89524
352	H	0.553678	0.961818	0.906397
353	N	0.617749	0.019973	0.006655
354	N	0.401987	0.011118	0.677686
