data_C168H102N36_2018-02-15_10:47:48
#******************************************
#
# CIF file created by Zeo++
# Zeo++ is an open source package to
# analyze microporous materials
#
#*******************************************

_cell_length_a		25.4187   
_cell_length_b		25.4186   
_cell_length_c		29.9764   
_cell_angle_alpha		90   
_cell_angle_beta		90   
_cell_angle_gamma		90.0385   

_symmetry_space_group_name_H-M		'P1'
_symmetry_Int_Tables_number		1
_symmetry_cell_setting		Monoclinic

loop_
_symmetry_equiv_pos_as_xyz
'+x,+y,+z'

loop_
_atom_site_label
_atom_site_type_symbol
_atom_site_fract_x
_atom_site_fract_y
_atom_site_fract_z
1	C	0.907572	0.859258	0.325113
2	C	0.867422	0.895759	0.325253
3	C	0.88979	0.945982	0.326502
4	N	0.942501	0.937992	0.327942
5	C	0.955453	0.886266	0.326713
6	C	0.005956	0.862118	0.326211
7	C	0.054546	0.889704	0.326725
8	N	0.062215	0.9423	0.327759
9	C	0.113864	0.954897	0.326902
10	C	0.141111	0.907211	0.325429
11	C	0.104577	0.867044	0.325597
12	C	0.136686	0.005905	0.32648
13	C	0.107839	0.053874	0.326913
14	N	0.055119	0.061868	0.32809
15	C	0.042182	0.11359	0.326705
16	C	0.09007	0.140608	0.325419
17	C	0.130221	0.104097	0.325739
18	C	0.991679	0.137707	0.325833
19	C	0.943078	0.11012	0.326132
20	N	0.935395	0.057525	0.327166
21	C	0.883743	0.044938	0.326247
22	C	0.856492	0.092603	0.324626
23	C	0.893036	0.132762	0.324806
24	C	0.860922	0.993939	0.325864
25	C	0.805114	0.990792	0.322027
26	C	0.772332	0.997315	0.026323
27	C	0.717232	0.994474	0.021976
28	C	0.693495	0.98482	0.313307
29	C	0.726817	0.978148	0.275852
30	C	0.781806	0.981314	0.280048
31	C	0.989474	0.193545	0.321926
32	C	0.995736	0.226281	0.026287
33	C	0.993251	0.281394	0.021928
34	C	0.984222	0.30517	0.313183
35	C	0.977909	0.271904	0.275645
36	C	0.980701	0.216902	0.279861
37	C	0.192456	0.008978	0.322241
38	C	0.215285	0.017959	0.280004
39	C	0.270258	0.019575	0.275117
40	C	0.304107	0.011963	0.312126
41	C	0.280762	0.003125	0.021105
42	C	0.225691	0.001733	0.026143
43	C	0.008117	0.806308	0.32193
44	C	0.0167	0.7834	0.279668
45	C	0.000758	0.77314	0.025864
46	C	0.001679	0.718054	0.020838
47	C	0.010164	0.694638	0.311841
48	C	0.017846	0.728417	0.274792
49	H	0.023953	0.713325	0.243536
50	H	0.021906	0.806604	0.252091
51	H	0.995614	0.695264	0.048502
52	H	0.994166	0.788888	0.056791
53	H	0.901944	0.819484	0.323625
54	H	0.828342	0.8864	0.323984
55	H	0.967903	0.965924	0.329001
56	H	0.029708	0.033932	0.328821
57	H	0.113656	0.827907	0.324414
58	H	0.180914	0.901817	0.324072
59	H	0.192037	0.022995	0.252436
60	H	0.285294	0.025876	0.243867
61	H	0.210005	0.994809	0.057044
62	H	0.303599	0.997102	0.048744
63	H	0.169316	0.113431	0.324646
64	H	0.095682	0.180379	0.323817
65	H	0.81669	0.097969	0.323155
66	H	0.883947	0.171894	0.323574
67	H	0.002055	0.210193	0.057128
68	H	0.997692	0.303945	0.049959
69	H	0.976039	0.194008	0.252032
70	H	0.971401	0.287411	0.244591
71	H	0.804727	0.976554	0.252249
72	H	0.711347	0.971259	0.244838
73	H	0.694662	0.999234	0.049951
74	H	0.788373	0.004247	0.05709
75	C	0.981037	0.3594	0.307549
76	C	0.358384	0.012279	0.305524
77	C	0.010194	0.640355	0.305272
78	C	0.639257	0.981598	0.307656
79	H	0.964082	0.373083	0.279948
80	H	0.371826	0.015915	0.274453
81	H	0.012881	0.626904	0.274136
82	H	0.625551	0.964697	0.280027
83	C	0.004687	0.474378	0.294708
84	N	0.006561	0.527614	0.29625
85	C	0.005438	0.554646	0.002083
86	N	0.002762	0.527024	0.040799
87	C	0.000996	0.473591	0.041424
88	C	0.001034	0.444829	0.33453
89	H	0.006354	0.456383	0.264289
90	N	0.006471	0.606765	0.003944
91	H	0.998966	0.454703	0.071483
92	N	0.999711	0.392497	0.335951
93	C	0.524335	0.005647	0.294809
94	N	0.471108	0.00766	0.296363
95	C	0.444088	0.0064	0.0022
96	N	0.471687	0.003378	0.040905
97	C	0.525111	0.001468	0.041519
98	C	0.553866	0.001718	0.33462
99	H	0.542347	0.007438	0.264402
100	N	0.39198	0.007497	0.004082
101	H	0.543997	0.999215	0.071568
102	N	0.60618	0.000301	0.336038
103	C	0.907572	0.859258	0.658446
104	C	0.867422	0.895759	0.658586
105	C	0.88979	0.945982	0.659837
106	N	0.942501	0.937992	0.661274
107	C	0.955453	0.886266	0.660047
108	C	0.005956	0.862118	0.659543
109	C	0.054546	0.889704	0.660057
110	N	0.062215	0.9423	0.661091
111	C	0.113864	0.954897	0.660234
112	C	0.141111	0.907211	0.658762
113	C	0.104577	0.867044	0.658929
114	C	0.136686	0.005905	0.659813
115	C	0.107839	0.053874	0.660247
116	N	0.055119	0.061868	0.661421
117	C	0.042182	0.11359	0.660037
118	C	0.09007	0.140608	0.658752
119	C	0.130221	0.104097	0.659073
120	C	0.991679	0.137707	0.659166
121	C	0.943078	0.11012	0.659466
122	N	0.935395	0.057525	0.6605
123	C	0.883743	0.044938	0.65958
124	C	0.856492	0.092603	0.657958
125	C	0.893036	0.132762	0.658139
126	C	0.860922	0.993939	0.659196
127	C	0.805114	0.990792	0.65536
128	C	0.772332	0.997315	0.359657
129	C	0.717232	0.994474	0.35531
130	C	0.693495	0.98482	0.64664
131	C	0.726817	0.978148	0.609183
132	C	0.781806	0.981314	0.61338
133	C	0.989474	0.193545	0.65526
134	C	0.995736	0.226281	0.35962
135	C	0.993251	0.281394	0.35526
136	C	0.984222	0.30517	0.646516
137	C	0.977909	0.271904	0.608977
138	C	0.980701	0.216902	0.613193
139	C	0.192456	0.008978	0.655573
140	C	0.215285	0.017959	0.613337
141	C	0.270258	0.019575	0.608449
142	C	0.304107	0.011963	0.645459
143	C	0.280762	0.003125	0.354439
144	C	0.225691	0.001733	0.359477
145	C	0.008117	0.806308	0.655263
146	C	0.0167	0.7834	0.613
147	C	0.000758	0.77314	0.359196
148	C	0.001679	0.718054	0.354169
149	C	0.010164	0.694638	0.645175
150	C	0.017846	0.728417	0.608126
151	H	0.023953	0.713325	0.576868
152	H	0.021906	0.806604	0.585425
153	H	0.995614	0.695264	0.381834
154	H	0.994166	0.788888	0.390124
155	H	0.901944	0.819484	0.656958
156	H	0.828342	0.8864	0.657318
157	H	0.967903	0.965924	0.662332
158	H	0.029708	0.033932	0.662155
159	H	0.113656	0.827907	0.657745
160	H	0.180914	0.901817	0.657405
161	H	0.192037	0.022995	0.585768
162	H	0.285294	0.025876	0.577198
163	H	0.210005	0.994809	0.390378
164	H	0.303599	0.997102	0.382078
165	H	0.169316	0.113431	0.657979
166	H	0.095682	0.180379	0.657151
167	H	0.81669	0.097969	0.656487
168	H	0.883947	0.171894	0.656908
169	H	0.002055	0.210193	0.390461
170	H	0.997692	0.303945	0.383292
171	H	0.976039	0.194008	0.585365
172	H	0.971401	0.287411	0.577925
173	H	0.804727	0.976554	0.585581
174	H	0.711347	0.971259	0.578172
175	H	0.694662	0.999234	0.383282
176	H	0.788373	0.004247	0.390424
177	C	0.981037	0.3594	0.640882
178	C	0.358384	0.012279	0.638857
179	C	0.010194	0.640355	0.638603
180	C	0.639257	0.981598	0.640988
181	H	0.964082	0.373083	0.61328
182	H	0.371826	0.015915	0.607786
183	H	0.012881	0.626904	0.607469
184	H	0.625551	0.964697	0.61336
185	C	0.004687	0.474378	0.628042
186	N	0.006561	0.527614	0.629583
187	C	0.005438	0.554646	0.335414
188	N	0.002762	0.527024	0.374131
189	C	0.000996	0.473591	0.374759
190	C	0.001034	0.444829	0.667863
191	H	0.006354	0.456383	0.597621
192	N	0.006471	0.606765	0.337276
193	H	0.998966	0.454703	0.404816
194	N	0.999711	0.392497	0.669284
195	C	0.524335	0.005647	0.628142
196	N	0.471108	0.00766	0.629696
197	C	0.444088	0.0064	0.335534
198	N	0.471687	0.003378	0.374238
199	C	0.525111	0.001468	0.374852
200	C	0.553866	0.001718	0.667953
201	H	0.542347	0.007438	0.597734
202	N	0.39198	0.007497	0.337416
203	H	0.543997	0.999215	0.404899
204	N	0.60618	0.000301	0.669371
205	C	0.907572	0.859258	0.991778
206	C	0.867422	0.895759	0.991918
207	C	0.88979	0.945982	0.993169
208	N	0.942501	0.937992	0.994607
209	C	0.955453	0.886266	0.993379
210	C	0.005956	0.862118	0.992876
211	C	0.054546	0.889704	0.993389
212	N	0.062215	0.9423	0.994424
213	C	0.113864	0.954897	0.993566
214	C	0.141111	0.907211	0.992095
215	C	0.104577	0.867044	0.992262
216	C	0.136686	0.005905	0.993146
217	C	0.107839	0.053874	0.99358
218	N	0.055119	0.061868	0.994754
219	C	0.042182	0.11359	0.993373
220	C	0.09007	0.140608	0.992085
221	C	0.130221	0.104097	0.992405
222	C	0.991679	0.137707	0.992499
223	C	0.943078	0.11012	0.992799
224	N	0.935395	0.057525	0.993833
225	C	0.883743	0.044938	0.992912
226	C	0.856492	0.092603	0.991291
227	C	0.893036	0.132762	0.991471
228	C	0.860922	0.993939	0.992529
229	C	0.805114	0.990792	0.988692
230	C	0.772332	0.997315	0.692989
231	C	0.717232	0.994474	0.688643
232	C	0.693495	0.98482	0.979972
233	C	0.726817	0.978148	0.942516
234	C	0.781806	0.981314	0.946713
235	C	0.989474	0.193545	0.988592
236	C	0.995736	0.226281	0.692953
237	C	0.993251	0.281394	0.688593
238	C	0.984222	0.30517	0.979849
239	C	0.977909	0.271904	0.942309
240	C	0.980701	0.216902	0.946526
241	C	0.192456	0.008978	0.988906
242	C	0.215285	0.017959	0.946669
243	C	0.270258	0.019575	0.941782
244	C	0.304107	0.011963	0.978791
245	C	0.280762	0.003125	0.687772
246	C	0.225691	0.001733	0.692809
247	C	0.008117	0.806308	0.988596
248	C	0.0167	0.7834	0.946332
249	C	0.000758	0.77314	0.692529
250	C	0.001679	0.718054	0.687505
251	C	0.010164	0.694638	0.978508
252	C	0.017846	0.728417	0.941459
253	H	0.023953	0.713325	0.910201
254	H	0.021906	0.806604	0.918757
255	H	0.995614	0.695264	0.715167
256	H	0.994166	0.788888	0.723457
257	H	0.901944	0.819484	0.99029
258	H	0.828342	0.8864	0.990651
259	H	0.967903	0.965924	0.995665
260	H	0.029708	0.033932	0.995488
261	H	0.113656	0.827907	0.991078
262	H	0.180914	0.901817	0.990737
263	H	0.192037	0.022995	0.919101
264	H	0.285294	0.025876	0.910534
265	H	0.210005	0.994809	0.72371
266	H	0.303599	0.997102	0.71541
267	H	0.169316	0.113431	0.991311
268	H	0.095682	0.180379	0.990484
269	H	0.81669	0.097969	0.98982
270	H	0.883947	0.171894	0.99024
271	H	0.002055	0.210193	0.723794
272	H	0.997692	0.303945	0.716625
273	H	0.976039	0.194008	0.918697
274	H	0.971401	0.287411	0.911258
275	H	0.804727	0.976554	0.918914
276	H	0.711347	0.971259	0.911505
277	H	0.694662	0.999234	0.716618
278	H	0.788373	0.004247	0.723757
279	C	0.981037	0.3594	0.974214
280	C	0.358384	0.012279	0.972189
281	C	0.010194	0.640355	0.971939
282	C	0.639257	0.981598	0.974321
283	H	0.964082	0.373083	0.946613
284	H	0.371826	0.015915	0.941118
285	H	0.012881	0.626904	0.940801
286	H	0.625551	0.964697	0.946693
287	C	0.004687	0.474378	0.961374
288	N	0.006561	0.527614	0.962915
289	C	0.005438	0.554646	0.668747
290	N	0.002762	0.527024	0.707464
291	C	0.000996	0.473591	0.708091
292	C	0.001034	0.444829	0.001197
293	H	0.006354	0.456383	0.930954
294	N	0.006471	0.606765	0.670608
295	H	0.998966	0.454703	0.738148
296	N	0.999711	0.392497	0.00262
297	C	0.524335	0.005647	0.961474
298	N	0.471108	0.00766	0.963029
299	C	0.444088	0.0064	0.668867
300	N	0.471687	0.003378	0.707571
301	C	0.525111	0.001468	0.708185
302	C	0.553866	0.001718	0.001289
303	H	0.542347	0.007438	0.931067
304	N	0.39198	0.007497	0.670749
305	H	0.543997	0.999215	0.738232
306	N	0.60618	0.000301	0.002706
