data_C144H72N54O54_2018-02-15_10:32:30
#******************************************
#
# CIF file created by Zeo++
# Zeo++ is an open source package to
# analyze microporous materials
#
#*******************************************

_cell_length_a		29.2264   
_cell_length_b		29.2271   
_cell_length_c		30.136   
_cell_angle_alpha		90   
_cell_angle_beta		90   
_cell_angle_gamma		120   

_symmetry_space_group_name_H-M		'P1'
_symmetry_Int_Tables_number		1
_symmetry_cell_setting		Monoclinic

loop_
_symmetry_equiv_pos_as_xyz
'+x,+y,+z'

loop_
_atom_site_label
_atom_site_type_symbol
_atom_site_fract_x
_atom_site_fract_y
_atom_site_fract_z
1	C	0.276102	0.633628	0.968667
2	N	0.307245	0.611409	0.969002
3	C	0.36074	0.641309	0.302015
4	N	0.382963	0.694668	0.968979
5	C	0.353069	0.71827	0.96863
6	N	0.299707	0.687122	0.968962
7	C	0.393126	0.618489	0.972476
8	C	0.375862	0.77347	0.305749
9	C	0.220898	0.601255	0.972456
10	O	0.344713	0.794023	0.961934
11	O	0.200313	0.549536	0.962024
12	O	0.44484	0.649625	0.962024
13	C	0.716506	0.365399	0.998201
14	N	0.681973	0.383631	0.997955
15	C	0.628992	0.349953	0.33154
16	N	0.610755	0.297187	0.998085
17	C	0.64444	0.27789	0.99833
18	N	0.697202	0.312421	0.998078
19	C	0.593532	0.369211	0.997178
20	C	0.625226	0.223176	0.330787
21	C	0.771224	0.400859	0.997168
22	O	0.65786	0.206512	0.981691
23	O	0.787861	0.45007	0.9812
24	O	0.544312	0.33663	0.98123
25	C	0.404692	0.545312	0.328403
26	C	0.453524	0.572423	0.017785
27	C	0.48494	0.549042	0.023834
28	C	0.4676	0.497417	0.008156
29	C	0.417522	0.469026	0.321032
30	C	0.38623	0.492605	0.314963
31	H	0.404132	0.431549	0.309332
32	H	0.350841	0.471879	0.298785
33	C	0.501981	0.476335	0.009778
34	C	0.518135	0.465909	0.051249
35	C	0.554219	0.447016	0.051867
36	C	0.573151	0.437191	0.012144
37	C	0.557216	0.448028	0.304621
38	C	0.522184	0.468047	0.302851
39	H	0.565618	0.438925	0.081596
40	H	0.571987	0.442137	0.275724
41	H	0.466998	0.609801	0.029634
42	H	0.521187	0.570581	0.038574
43	N	0.508348	0.480989	0.261489
44	N	0.497186	0.473325	0.091293
45	O	0.532952	0.506523	0.116117
46	O	0.548096	0.516641	0.241726
47	O	0.485766	0.441394	0.236468
48	O	0.471545	0.430715	0.112295
49	N	0.606884	0.417907	0.012986
50	H	0.639156	0.437491	0.030379
51	N	0.374413	0.568049	0.320373
52	H	0.336377	0.545478	0.324372
53	C	0.449002	0.858235	0.32833
54	C	0.421852	0.879897	0.017741
55	C	0.445196	0.934683	0.023839
56	C	0.496806	0.969015	0.008153
57	C	0.52523	0.947392	0.320987
58	C	0.501679	0.892536	0.314851
59	H	0.562712	0.971516	0.309307
60	H	0.522448	0.877902	0.298701
61	C	0.517867	0.024469	0.009888
62	C	0.528282	0.05093	0.051418
63	C	0.547239	0.105917	0.052157
64	C	0.557167	0.134799	0.012498
65	C	0.546322	0.108148	0.304915
66	C	0.526242	0.053092	0.303024
67	H	0.555385	0.125329	0.081927
68	H	0.55234	0.128915	0.276062
69	H	0.384478	0.855955	0.029584
70	H	0.423617	0.949344	0.038581
71	N	0.513347	0.02644	0.261605
72	N	0.520832	0.022449	0.091398
73	O	0.48765	0.024987	0.116266
74	O	0.47776	0.030649	0.241841
75	O	0.552983	0.043488	0.236629
76	O	0.56343	0.039315	0.112395
77	N	0.576672	0.187834	0.013514
78	H	0.556773	0.200551	0.030429
79	N	0.426306	0.805227	0.320287
80	H	0.448907	0.789791	0.324264
81	C	0.136169	0.589703	0.328404
82	C	0.114457	0.540883	0.017801
83	C	0.059659	0.509467	0.023857
84	C	0.02537	0.526799	0.008171
85	C	0.047052	0.576867	0.321033
86	C	0.101921	0.608157	0.314956
87	H	0.022958	0.590252	0.309329
88	H	0.116581	0.643541	0.298768
89	C	0.96991	0.492423	0.009812
90	C	0.943347	0.476292	0.051294
91	C	0.888369	0.440221	0.051932
92	C	0.85959	0.421281	0.01222
93	C	0.886342	0.437187	0.304687
94	C	0.941397	0.472207	0.302896
95	H	0.868894	0.428843	0.081668
96	H	0.865671	0.422411	0.275798
97	H	0.138365	0.527419	0.029657
98	H	0.044957	0.47323	0.03861
99	N	0.968155	0.486019	0.261525
100	N	0.97173	0.497255	0.091326
101	O	0.969166	0.461496	0.116159
102	O	0.964041	0.446258	0.24177
103	O	0.951138	0.508597	0.236503
104	O	0.954781	0.522911	0.112327
105	N	0.806575	0.387577	0.013098
106	H	0.793848	0.35528	0.030465
107	N	0.189186	0.619978	0.320373
108	H	0.204648	0.658016	0.324346
109	C	0.276102	0.633628	0.302
110	N	0.307245	0.611409	0.302337
111	C	0.36074	0.641309	0.635347
112	N	0.382963	0.694668	0.302314
113	C	0.353069	0.71827	0.301963
114	N	0.299707	0.687122	0.302298
115	C	0.393126	0.618489	0.305811
116	C	0.375862	0.77347	0.639081
117	C	0.220898	0.601255	0.305792
118	O	0.344713	0.794023	0.295268
119	O	0.200313	0.549536	0.29536
120	O	0.44484	0.649625	0.295359
121	C	0.716506	0.365399	0.331534
122	N	0.681973	0.383631	0.331288
123	C	0.628992	0.349953	0.664874
124	N	0.610755	0.297187	0.331418
125	C	0.64444	0.27789	0.331663
126	N	0.697202	0.312421	0.331411
127	C	0.593532	0.369211	0.330512
128	C	0.625226	0.223176	0.66412
129	C	0.771224	0.400859	0.330502
130	O	0.65786	0.206512	0.315025
131	O	0.787861	0.45007	0.314536
132	O	0.544312	0.33663	0.314565
133	C	0.404692	0.545312	0.661735
134	C	0.453524	0.572423	0.351119
135	C	0.48494	0.549042	0.357168
136	C	0.4676	0.497417	0.341489
137	C	0.417522	0.469026	0.654365
138	C	0.38623	0.492605	0.648295
139	H	0.404132	0.431549	0.642664
140	H	0.350841	0.471879	0.632119
141	C	0.501981	0.476335	0.343112
142	C	0.518135	0.465909	0.384581
143	C	0.554219	0.447016	0.385201
144	C	0.573151	0.437191	0.345478
145	C	0.557216	0.448028	0.637952
146	C	0.522184	0.468047	0.636184
147	H	0.565618	0.438925	0.41493
148	H	0.571987	0.442137	0.609057
149	H	0.466998	0.609801	0.362965
150	H	0.521187	0.570581	0.371908
151	N	0.508348	0.480989	0.594821
152	N	0.497186	0.473325	0.424626
153	O	0.532952	0.506523	0.44945
154	O	0.548096	0.516641	0.575057
155	O	0.485766	0.441394	0.569801
156	O	0.471545	0.430715	0.445627
157	N	0.606884	0.417907	0.346317
158	H	0.639156	0.437491	0.363712
159	N	0.374413	0.568049	0.653704
160	H	0.336377	0.545478	0.657706
161	C	0.449002	0.858235	0.661662
162	C	0.421852	0.879897	0.351072
163	C	0.445196	0.934683	0.357171
164	C	0.496806	0.969015	0.341486
165	C	0.52523	0.947392	0.654321
166	C	0.501679	0.892536	0.648183
167	H	0.562712	0.971516	0.642641
168	H	0.522448	0.877902	0.632032
169	C	0.517867	0.024469	0.343221
170	C	0.528282	0.05093	0.38475
171	C	0.547239	0.105917	0.38549
172	C	0.557167	0.134799	0.345829
173	C	0.546322	0.108148	0.638248
174	C	0.526242	0.053092	0.636356
175	H	0.555385	0.125329	0.415258
176	H	0.55234	0.128915	0.609395
177	H	0.384478	0.855955	0.362915
178	H	0.423617	0.949344	0.371915
179	N	0.513347	0.02644	0.594937
180	N	0.520832	0.022449	0.424732
181	O	0.48765	0.024987	0.449599
182	O	0.47776	0.030649	0.575173
183	O	0.552983	0.043488	0.56996
184	O	0.56343	0.039315	0.445727
185	N	0.576672	0.187834	0.346848
186	H	0.556773	0.200551	0.363762
187	N	0.426306	0.805227	0.653621
188	H	0.448907	0.789791	0.657597
189	C	0.136169	0.589703	0.661738
190	C	0.114457	0.540883	0.351135
191	C	0.059659	0.509467	0.357191
192	C	0.02537	0.526799	0.341502
193	C	0.047052	0.576867	0.654365
194	C	0.101921	0.608157	0.648289
195	H	0.022958	0.590252	0.642661
196	H	0.116581	0.643541	0.632102
197	C	0.96991	0.492423	0.343145
198	C	0.943347	0.476292	0.384627
199	C	0.888369	0.440221	0.385264
200	C	0.85959	0.421281	0.345554
201	C	0.886342	0.437187	0.638019
202	C	0.941397	0.472207	0.63623
203	H	0.868894	0.428843	0.414999
204	H	0.865671	0.422411	0.60913
205	H	0.138365	0.527419	0.362988
206	H	0.044957	0.47323	0.371941
207	N	0.968155	0.486019	0.594858
208	N	0.97173	0.497255	0.424659
209	O	0.969166	0.461496	0.449493
210	O	0.964041	0.446258	0.575104
211	O	0.951138	0.508597	0.569834
212	O	0.954781	0.522911	0.44566
213	N	0.806575	0.387577	0.34643
214	H	0.793848	0.35528	0.363798
215	N	0.189186	0.619978	0.653704
216	H	0.204648	0.658016	0.65768
217	C	0.276102	0.633628	0.635334
218	N	0.307245	0.611409	0.635669
219	C	0.36074	0.641309	0.96868
220	N	0.382963	0.694668	0.635646
221	C	0.353069	0.71827	0.635298
222	N	0.299707	0.687122	0.63563
223	C	0.393126	0.618489	0.639144
224	C	0.375862	0.77347	0.972413
225	C	0.220898	0.601255	0.639124
226	O	0.344713	0.794023	0.628601
227	O	0.200313	0.549536	0.628691
228	O	0.44484	0.649625	0.628691
229	C	0.716506	0.365399	0.664867
230	N	0.681973	0.383631	0.664621
231	C	0.628992	0.349953	0.998207
232	N	0.610755	0.297187	0.664751
233	C	0.64444	0.27789	0.664996
234	N	0.697202	0.312421	0.664744
235	C	0.593532	0.369211	0.663845
236	C	0.625226	0.223176	0.997453
237	C	0.771224	0.400859	0.663835
238	O	0.65786	0.206512	0.648359
239	O	0.787861	0.45007	0.647867
240	O	0.544312	0.33663	0.647897
241	C	0.404692	0.545312	0.995067
242	C	0.453524	0.572423	0.684452
243	C	0.48494	0.549042	0.690501
244	C	0.4676	0.497417	0.674822
245	C	0.417522	0.469026	0.987697
246	C	0.38623	0.492605	0.981628
247	H	0.404132	0.431549	0.975997
248	H	0.350841	0.471879	0.965452
249	C	0.501981	0.476335	0.676445
250	C	0.518135	0.465909	0.717913
251	C	0.554219	0.447016	0.718534
252	C	0.573151	0.437191	0.678811
253	C	0.557216	0.448028	0.971285
254	C	0.522184	0.468047	0.969516
255	H	0.565618	0.438925	0.748262
256	H	0.571987	0.442137	0.942389
257	H	0.466998	0.609801	0.696298
258	H	0.521187	0.570581	0.705241
259	N	0.508348	0.480989	0.928154
260	N	0.497186	0.473325	0.757958
261	O	0.532952	0.506523	0.782783
262	O	0.548096	0.516641	0.90839
263	O	0.485766	0.441394	0.903134
264	O	0.471545	0.430715	0.77896
265	N	0.606884	0.417907	0.67965
266	H	0.639156	0.437491	0.697045
267	N	0.374413	0.568049	0.987037
268	H	0.336377	0.545478	0.991039
269	C	0.449002	0.858235	0.994994
270	C	0.421852	0.879897	0.684405
271	C	0.445196	0.934683	0.690504
272	C	0.496806	0.969015	0.674819
273	C	0.52523	0.947392	0.987654
274	C	0.501679	0.892536	0.981515
275	H	0.562712	0.971516	0.975974
276	H	0.522448	0.877902	0.965365
277	C	0.517867	0.024469	0.676554
278	C	0.528282	0.05093	0.718083
279	C	0.547239	0.105917	0.718823
280	C	0.557167	0.134799	0.679162
281	C	0.546322	0.108148	0.97158
282	C	0.526242	0.053092	0.969689
283	H	0.555385	0.125329	0.748591
284	H	0.55234	0.128915	0.942728
285	H	0.384478	0.855955	0.696248
286	H	0.423617	0.949344	0.705247
287	N	0.513347	0.02644	0.92827
288	N	0.520832	0.022449	0.758065
289	O	0.48765	0.024987	0.782932
290	O	0.47776	0.030649	0.908506
291	O	0.552983	0.043488	0.903293
292	O	0.56343	0.039315	0.77906
293	N	0.576672	0.187834	0.680181
294	H	0.556773	0.200551	0.697094
295	N	0.426306	0.805227	0.986954
296	H	0.448907	0.789791	0.990929
297	C	0.136169	0.589703	0.995071
298	C	0.114457	0.540883	0.684468
299	C	0.059659	0.509467	0.690524
300	C	0.02537	0.526799	0.674835
301	C	0.047052	0.576867	0.987697
302	C	0.101921	0.608157	0.981622
303	H	0.022958	0.590252	0.975994
304	H	0.116581	0.643541	0.965435
305	C	0.96991	0.492423	0.676478
306	C	0.943347	0.476292	0.71796
307	C	0.888369	0.440221	0.718597
308	C	0.85959	0.421281	0.678887
309	C	0.886342	0.437187	0.971351
310	C	0.941397	0.472207	0.969563
311	H	0.868894	0.428843	0.748332
312	H	0.865671	0.422411	0.942462
313	H	0.138365	0.527419	0.696321
314	H	0.044957	0.47323	0.705274
315	N	0.968155	0.486019	0.92819
316	N	0.97173	0.497255	0.757992
317	O	0.969166	0.461496	0.782826
318	O	0.964041	0.446258	0.908437
319	O	0.951138	0.508597	0.903167
320	O	0.954781	0.522911	0.778993
321	N	0.806575	0.387577	0.679763
322	H	0.793848	0.35528	0.697131
323	N	0.189186	0.619978	0.987037
324	H	0.204648	0.658016	0.991012
