data_C216H108N54_2018-02-15_10:40:18
#******************************************
#
# CIF file created by Zeo++
# Zeo++ is an open source package to
# analyze microporous materials
#
#*******************************************

_cell_length_a		30.1912   
_cell_length_b		30.1912   
_cell_length_c		29.3742   
_cell_angle_alpha		90   
_cell_angle_beta		90   
_cell_angle_gamma		120   

_symmetry_space_group_name_H-M		'P1'
_symmetry_Int_Tables_number		1
_symmetry_cell_setting		Monoclinic

loop_
_symmetry_equiv_pos_as_xyz
'+x,+y,+z'

loop_
_atom_site_label
_atom_site_type_symbol
_atom_site_fract_x
_atom_site_fract_y
_atom_site_fract_z
1	C	0.150639	0.618353	0.010519
2	C	0.123309	0.564173	0.010563
3	C	0.150448	0.537129	0.010678
4	H	0.131226	0.638111	0.010427
5	H	0.130911	0.497958	0.010733
6	N	0.043036	0.524175	0.304035
7	C	0.069426	0.537324	0.343897
8	N	0.043063	0.524164	0.050443
9	C	0.150639	0.618353	0.343853
10	C	0.123309	0.564173	0.343893
11	C	0.150448	0.537129	0.344013
12	H	0.131226	0.638111	0.343757
13	H	0.130911	0.497958	0.344067
14	N	0.043036	0.524175	0.637368
15	C	0.069426	0.537324	0.677233
16	N	0.043063	0.524164	0.383775
17	C	0.150639	0.618353	0.677186
18	C	0.123309	0.564173	0.677226
19	C	0.150448	0.537129	0.677346
20	H	0.131226	0.638111	0.67709
21	H	0.130911	0.497958	0.6774
22	N	0.043036	0.524175	0.970701
23	C	0.069426	0.537324	0.010566
24	N	0.043063	0.524164	0.717112
25	C	0.20445	0.563795	0.010766
26	C	0.230901	0.617787	0.010816
27	C	0.204662	0.645561	0.01069
28	H	0.270173	0.637361	0.010904
29	C	0.302628	0.540093	0.051409
30	N	0.258535	0.541734	0.050258
31	C	0.233491	0.539195	0.011024
32	N	0.258146	0.541658	0.304853
33	C	0.302239	0.540036	0.30329
34	C	0.25898	0.724038	0.05141
35	N	0.304675	0.768174	0.050199
36	N	0.304716	0.768534	0.304702
37	C	0.259013	0.724406	0.303269
38	C	0.233852	0.699431	0.343921
39	H	0.24666	0.70586	0.082077
40	H	0.246746	0.706426	0.272519
41	C	0.20445	0.563795	0.344101
42	C	0.230901	0.617787	0.344149
43	C	0.204662	0.645561	0.344023
44	H	0.270173	0.637361	0.344237
45	C	0.302628	0.540093	0.384742
46	N	0.258535	0.541734	0.383591
47	C	0.233491	0.539195	0.344356
48	N	0.258146	0.541658	0.638185
49	C	0.302239	0.540036	0.636623
50	C	0.25898	0.724038	0.384742
51	N	0.304675	0.768174	0.383534
52	N	0.304716	0.768534	0.638036
53	C	0.259013	0.724406	0.636602
54	C	0.233852	0.699431	0.677254
55	H	0.24666	0.70586	0.415412
56	H	0.246746	0.706426	0.605851
57	C	0.20445	0.563795	0.677434
58	C	0.230901	0.617787	0.677482
59	C	0.204662	0.645561	0.677356
60	H	0.270173	0.637361	0.67757
61	C	0.302628	0.540093	0.718075
62	N	0.258535	0.541734	0.716925
63	C	0.233491	0.539195	0.677693
64	N	0.258146	0.541658	0.971522
65	C	0.302239	0.540036	0.969956
66	C	0.25898	0.724038	0.718079
67	N	0.304675	0.768174	0.716867
68	N	0.304716	0.768534	0.971369
69	C	0.259013	0.724406	0.969935
70	C	0.233852	0.699431	0.010587
71	H	0.24666	0.70586	0.748745
72	H	0.246746	0.706426	0.939187
73	C	0.327222	0.539699	0.343876
74	H	0.320808	0.545857	0.082065
75	H	0.320194	0.545838	0.272516
76	C	0.326913	0.793119	0.010866
77	C	0.327222	0.539699	0.677213
78	H	0.320808	0.545857	0.415398
79	H	0.320194	0.545838	0.605851
80	C	0.326913	0.793119	0.3442
81	C	0.327222	0.539699	0.010546
82	H	0.320808	0.545857	0.748731
83	H	0.320194	0.545838	0.939184
84	C	0.326913	0.793119	0.677533
85	C	0.462846	0.645978	0.010722
86	C	0.408851	0.618418	0.010725
87	C	0.381095	0.564403	0.010634
88	C	0.408319	0.537607	0.010543
89	C	0.462501	0.564479	0.010587
90	C	0.489528	0.618659	0.010687
91	H	0.388575	0.498436	0.010471
92	H	0.528699	0.638306	0.010757
93	H	0.389265	0.638103	0.010789
94	C	0.380577	0.822151	0.0107
95	C	0.40813	0.795708	0.010702
96	C	0.462146	0.821964	0.010661
97	C	0.488952	0.875983	0.010597
98	C	0.462091	0.903302	0.010607
99	C	0.407909	0.876155	0.010658
100	H	0.528124	0.895404	0.010543
101	H	0.38827	0.895687	0.010694
102	H	0.388438	0.756437	0.010733
103	C	0.827457	0.457531	0.010729
104	C	0.801001	0.403539	0.010733
105	C	0.827237	0.375764	0.010681
106	C	0.881254	0.402966	0.010583
107	C	0.908635	0.457164	0.010614
108	C	0.881454	0.484185	0.010688
109	H	0.900663	0.383204	0.010522
110	H	0.900992	0.523353	0.010722
111	H	0.761732	0.383973	0.010767
112	C	0.569133	0.375296	0.010711
113	C	0.623125	0.402813	0.010747
114	C	0.650919	0.456824	0.010685
115	C	0.623735	0.483657	0.0106
116	C	0.569537	0.456854	0.010604
117	C	0.542499	0.40266	0.010655
118	H	0.643509	0.522829	0.010556
119	H	0.503328	0.383039	0.010678
120	H	0.642682	0.3831	0.010802
121	C	0.651357	0.199147	0.010746
122	C	0.623809	0.225591	0.0108
123	C	0.569799	0.199344	0.01071
124	C	0.542994	0.145329	0.010594
125	C	0.569821	0.117961	0.01059
126	C	0.624019	0.145148	0.010645
127	H	0.50382	0.125914	0.010543
128	H	0.643655	0.125615	0.010659
129	H	0.643507	0.264861	0.010869
130	C	0.991071	0.49826	0.302979
131	C	0.991102	0.498256	0.05153
132	C	0.962807	0.484155	0.010597
133	H	0.972962	0.489241	0.272142
134	H	0.973016	0.48923	0.082379
135	C	0.528436	0.498195	0.302983
136	N	0.50251	0.524233	0.30405
137	C	0.489366	0.537466	0.343921
138	N	0.502538	0.524267	0.05046
139	C	0.528462	0.498229	0.051535
140	C	0.542559	0.484047	0.010594
141	H	0.53745	0.489107	0.272141
142	H	0.537493	0.489165	0.08238
143	C	0.528444	0.035511	0.30298
144	N	0.502363	0.983546	0.304057
145	C	0.489122	0.957179	0.343931
146	N	0.50236	0.983558	0.050467
147	C	0.528442	0.03552	0.051533
148	C	0.54264	0.06379	0.010587
149	H	0.537528	0.053607	0.272136
150	H	0.537526	0.053622	0.082375
151	C	0.486504	0.767823	0.051408
152	N	0.484896	0.722103	0.050237
153	C	0.487427	0.699614	0.01099
154	N	0.484934	0.721805	0.30483
155	C	0.486527	0.767505	0.303286
156	C	0.486857	0.792801	0.343887
157	H	0.480744	0.780226	0.082072
158	H	0.480708	0.77966	0.272521
159	C	0.729433	0.481137	0.051487
160	N	0.773572	0.47958	0.050233
161	C	0.798435	0.482173	0.010871
162	N	0.773778	0.479676	0.304715
163	C	0.729643	0.481233	0.303276
164	C	0.704806	0.4815	0.343985
165	H	0.711274	0.475331	0.082157
166	H	0.711605	0.47545	0.272546
167	C	0.545528	0.253686	0.051431
168	N	0.547078	0.299375	0.050213
169	C	0.544464	0.321632	0.010866
170	N	0.546957	0.299457	0.304734
171	C	0.545407	0.253769	0.303353
172	C	0.545105	0.228509	0.344002
173	H	0.551333	0.241368	0.08212
174	H	0.55117	0.241525	0.27261
175	C	0.772959	0.297283	0.051414
176	N	0.727276	0.253135	0.050221
177	C	0.705023	0.228177	0.010896
178	N	0.727189	0.252763	0.304724
179	C	0.772873	0.296906	0.303273
180	C	0.798052	0.321892	0.343914
181	H	0.785292	0.315469	0.082077
182	H	0.785117	0.314882	0.272519
183	C	0.462846	0.645978	0.344057
184	C	0.408851	0.618418	0.344057
185	C	0.381095	0.564403	0.343965
186	C	0.408319	0.537607	0.343876
187	C	0.462501	0.564479	0.343921
188	C	0.489528	0.618659	0.344019
189	H	0.388575	0.498436	0.343801
190	H	0.528699	0.638306	0.344091
191	H	0.389265	0.638103	0.344121
192	C	0.380577	0.822151	0.344033
193	C	0.40813	0.795708	0.344036
194	C	0.462146	0.821964	0.343995
195	C	0.488952	0.875983	0.343927
196	C	0.462091	0.903302	0.343941
197	C	0.407909	0.876155	0.343992
198	H	0.528124	0.895404	0.343876
199	H	0.38827	0.895687	0.344026
200	H	0.388438	0.756437	0.344067
201	C	0.827457	0.457531	0.344064
202	C	0.801001	0.403539	0.344067
203	C	0.827237	0.375764	0.344016
204	C	0.881254	0.402966	0.343917
205	C	0.908635	0.457164	0.343948
206	C	0.881454	0.484185	0.344023
207	H	0.900663	0.383204	0.343856
208	H	0.900992	0.523353	0.344057
209	H	0.761732	0.383973	0.344101
210	C	0.569133	0.375296	0.344043
211	C	0.623125	0.402813	0.344081
212	C	0.650919	0.456824	0.344019
213	C	0.623735	0.483657	0.343931
214	C	0.569537	0.456854	0.343934
215	C	0.542499	0.40266	0.343989
216	H	0.643509	0.522829	0.34389
217	H	0.503328	0.383039	0.344013
218	H	0.642682	0.3831	0.344135
219	C	0.651357	0.199147	0.344081
220	C	0.623809	0.225591	0.344135
221	C	0.569799	0.199344	0.344043
222	C	0.542994	0.145329	0.343927
223	C	0.569821	0.117961	0.343921
224	C	0.624019	0.145148	0.343978
225	H	0.50382	0.125914	0.343873
226	H	0.643655	0.125615	0.343992
227	H	0.643507	0.264861	0.344203
228	C	0.991071	0.49826	0.636313
229	C	0.991102	0.498256	0.384865
230	C	0.962807	0.484155	0.343931
231	H	0.972962	0.489241	0.605476
232	H	0.973016	0.48923	0.415711
233	C	0.528436	0.498195	0.636316
234	N	0.50251	0.524233	0.637382
235	C	0.489366	0.537466	0.677254
236	N	0.502538	0.524267	0.383792
237	C	0.528462	0.498229	0.384868
238	C	0.542559	0.484047	0.343927
239	H	0.53745	0.489107	0.605473
240	H	0.537493	0.489165	0.415715
241	C	0.528444	0.035511	0.636313
242	N	0.502363	0.983546	0.637389
243	C	0.489122	0.957179	0.677264
244	N	0.50236	0.983558	0.383799
245	C	0.528442	0.03552	0.384865
246	C	0.54264	0.06379	0.343921
247	H	0.537528	0.053607	0.60547
248	H	0.537526	0.053622	0.415708
249	C	0.486504	0.767823	0.384742
250	N	0.484896	0.722103	0.383571
251	C	0.487427	0.699614	0.344322
252	N	0.484934	0.721805	0.638165
253	C	0.486527	0.767505	0.636619
254	C	0.486857	0.792801	0.67722
255	H	0.480744	0.780226	0.415405
256	H	0.480708	0.77966	0.605854
257	C	0.729433	0.481137	0.38482
258	N	0.773572	0.47958	0.383568
259	C	0.798435	0.482173	0.344203
260	N	0.773778	0.479676	0.638049
261	C	0.729643	0.481233	0.636609
262	C	0.704806	0.4815	0.677318
263	H	0.711274	0.475331	0.41549
264	H	0.711605	0.47545	0.605882
265	C	0.545528	0.253686	0.384766
266	N	0.547078	0.299375	0.383547
267	C	0.544464	0.321632	0.3442
268	N	0.546957	0.299457	0.638066
269	C	0.545407	0.253769	0.636688
270	C	0.545105	0.228509	0.677335
271	H	0.551333	0.241368	0.415453
272	H	0.55117	0.241525	0.605943
273	C	0.772959	0.297283	0.384749
274	N	0.727276	0.253135	0.383554
275	C	0.705023	0.228177	0.34423
276	N	0.727189	0.252763	0.638056
277	C	0.772873	0.296906	0.636606
278	C	0.798052	0.321892	0.677247
279	H	0.785292	0.315469	0.415412
280	H	0.785117	0.314882	0.605851
281	C	0.462846	0.645978	0.67739
282	C	0.408851	0.618418	0.677393
283	C	0.381095	0.564403	0.677298
284	C	0.408319	0.537607	0.677209
285	C	0.462501	0.564479	0.677254
286	C	0.489528	0.618659	0.677356
287	H	0.388575	0.498436	0.677138
288	H	0.528699	0.638306	0.677424
289	H	0.389265	0.638103	0.677455
290	C	0.380577	0.822151	0.677366
291	C	0.40813	0.795708	0.677369
292	C	0.462146	0.821964	0.677329
293	C	0.488952	0.875983	0.67726
294	C	0.462091	0.903302	0.677274
295	C	0.407909	0.876155	0.677325
296	H	0.528124	0.895404	0.677209
297	H	0.38827	0.895687	0.677359
298	H	0.388438	0.756437	0.6774
299	C	0.827457	0.457531	0.677397
300	C	0.801001	0.403539	0.6774
301	C	0.827237	0.375764	0.677349
302	C	0.881254	0.402966	0.67725
303	C	0.908635	0.457164	0.677281
304	C	0.881454	0.484185	0.677356
305	H	0.900663	0.383204	0.677189
306	H	0.900992	0.523353	0.67739
307	H	0.761732	0.383973	0.677434
308	C	0.569133	0.375296	0.677376
309	C	0.623125	0.402813	0.677414
310	C	0.650919	0.456824	0.677352
311	C	0.623735	0.483657	0.677264
312	C	0.569537	0.456854	0.677271
313	C	0.542499	0.40266	0.677322
314	H	0.643509	0.522829	0.677223
315	H	0.503328	0.383039	0.677346
316	H	0.642682	0.3831	0.677468
317	C	0.651357	0.199147	0.677414
318	C	0.623809	0.225591	0.677468
319	C	0.569799	0.199344	0.677376
320	C	0.542994	0.145329	0.67726
321	C	0.569821	0.117961	0.677257
322	C	0.624019	0.145148	0.677312
323	H	0.50382	0.125914	0.677206
324	H	0.643655	0.125615	0.677325
325	H	0.643507	0.264861	0.677536
326	C	0.991071	0.49826	0.969646
327	C	0.991102	0.498256	0.718198
328	C	0.962807	0.484155	0.677264
329	H	0.972962	0.489241	0.93881
330	H	0.973016	0.48923	0.749048
331	C	0.528436	0.498195	0.96965
332	N	0.50251	0.524233	0.970718
333	C	0.489366	0.537466	0.010587
334	N	0.502538	0.524267	0.717129
335	C	0.528462	0.498229	0.718201
336	C	0.542559	0.484047	0.67726
337	H	0.53745	0.489107	0.93881
338	H	0.537493	0.489165	0.749048
339	C	0.528444	0.035511	0.969646
340	N	0.502363	0.983546	0.970725
341	C	0.489122	0.957179	0.010597
342	N	0.50236	0.983558	0.717136
343	C	0.528442	0.03552	0.718201
344	C	0.54264	0.06379	0.677254
345	H	0.537528	0.053607	0.938803
346	H	0.537526	0.053622	0.749041
347	C	0.486504	0.767823	0.718075
348	N	0.484896	0.722103	0.716904
349	C	0.487427	0.699614	0.677655
350	N	0.484934	0.721805	0.971498
351	C	0.486527	0.767505	0.969952
352	C	0.486857	0.792801	0.010553
353	H	0.480744	0.780226	0.748738
354	H	0.480708	0.77966	0.939187
355	C	0.729433	0.481137	0.718153
356	N	0.773572	0.47958	0.716901
357	C	0.798435	0.482173	0.67754
358	N	0.773778	0.479676	0.971382
359	C	0.729643	0.481233	0.969942
360	C	0.704806	0.4815	0.010652
361	H	0.711274	0.475331	0.748823
362	H	0.711605	0.47545	0.939215
363	C	0.545528	0.253686	0.718099
364	N	0.547078	0.299375	0.71688
365	C	0.544464	0.321632	0.677533
366	N	0.546957	0.299457	0.971399
367	C	0.545407	0.253769	0.970021
368	C	0.545105	0.228509	0.010668
369	H	0.551333	0.241368	0.748786
370	H	0.55117	0.241525	0.939276
371	C	0.772959	0.297283	0.718082
372	N	0.727276	0.253135	0.716887
373	C	0.705023	0.228177	0.677563
374	N	0.727189	0.252763	0.971393
375	C	0.772873	0.296906	0.969939
376	C	0.798052	0.321892	0.01058
377	H	0.785292	0.315469	0.748745
378	H	0.785117	0.314882	0.939187
