data_C180H114N36O6_2018-02-15_10:47:47
#******************************************
#
# CIF file created by Zeo++
# Zeo++ is an open source package to
# analyze microporous materials
#
#*******************************************

_cell_length_a		25.5745   
_cell_length_b		25.5743   
_cell_length_c		29.1782   
_cell_angle_alpha		90   
_cell_angle_beta		90   
_cell_angle_gamma		90.0373   

_symmetry_space_group_name_H-M		'P1'
_symmetry_Int_Tables_number		1
_symmetry_cell_setting		Monoclinic

loop_
_symmetry_equiv_pos_as_xyz
'+x,+y,+z'

loop_
_atom_site_label
_atom_site_type_symbol
_atom_site_fract_x
_atom_site_fract_y
_atom_site_fract_z
1	C	0.796839	0.017048	0.054413
2	C	0.742186	0.015133	0.059919
3	C	0.018532	0.229287	0.054204
4	C	0.016995	0.283934	0.059835
5	C	0.294991	0.007749	0.027104
6	C	0.240237	0.005938	0.033036
7	C	0.007694	0.786038	0.03316
8	C	0.009046	0.731272	0.027237
9	H	0.004487	0.708019	0.055495
10	H	0.002147	0.801026	0.065318
11	H	0.225318	0.998364	0.064903
12	H	0.318296	0.001469	0.055068
13	H	0.024171	0.206135	0.082401
14	H	0.021762	0.298797	0.092165
15	H	0.727259	0.018655	0.092347
16	H	0.819924	0.021795	0.082781
17	N	0.997804	0.484302	0.038284
18	C	0.996087	0.537238	0.041786
19	H	0.984508	0.554063	0.071889
20	N	0.541911	0.997555	0.037921
21	C	0.488978	0.995839	0.041473
22	H	0.472176	0.983819	0.071457
23	C	0.708435	0.008093	0.021896
24	C	0.008558	0.317759	0.022091
25	C	0.00507	0.371585	0.029495
26	C	0.654586	0.004351	0.02911
27	H	0.996003	0.38399	0.06085
28	H	0.642114	0.994282	0.060214
29	C	0.916565	0.877071	0.335444
30	C	0.878149	0.914964	0.33721
31	C	0.90229	0.96401	0.33771
32	N	0.95439	0.953824	0.336798
33	C	0.965274	0.901873	0.335485
34	C	0.014432	0.875679	0.333992
35	C	0.0638	0.901388	0.334233
36	N	0.073716	0.953351	0.335789
37	C	0.125562	0.963935	0.334348
38	C	0.150578	0.915473	0.332125
39	C	0.112638	0.877028	0.332341
40	C	0.150512	0.013653	0.3342
41	C	0.123532	0.062402	0.335708
42	N	0.071433	0.07256	0.336588
43	C	0.060562	0.124506	0.337995
44	C	0.109257	0.149333	0.338086
45	C	0.147676	0.111442	0.336718
46	C	0.011441	0.150786	0.339101
47	C	0.962066	0.125138	0.338751
48	N	0.952218	0.073146	0.33754
49	C	0.90039	0.062524	0.338967
50	C	0.875322	0.110995	0.340679
51	C	0.913233	0.149473	0.340727
52	C	0.875413	0.012813	0.339175
53	C	0.819696	0.011913	0.343915
54	C	0.708435	0.008093	0.355228
55	C	0.731627	0.00326	0.311297
56	C	0.786405	0.005164	0.305695
57	C	0.011571	0.206513	0.343863
58	C	0.008558	0.317759	0.355423
59	C	0.00195	0.294669	0.311627
60	C	0.003432	0.239891	0.305911
61	C	0.206192	0.014756	0.328995
62	C	0.228292	0.0252	0.285599
63	C	0.282885	0.027199	0.279817
64	C	0.317489	0.018573	0.317021
65	C	0.014425	0.820002	0.328724
66	C	0.022273	0.797816	0.284948
67	C	0.017424	0.708687	0.316779
68	C	0.023893	0.74321	0.279176
69	H	0.030137	0.728903	0.246851
70	H	0.027438	0.821355	0.256922
71	H	0.909352	0.837774	0.334552
72	H	0.838944	0.907218	0.337626
73	H	0.980774	0.980565	0.337081
74	H	0.045053	0.04583	0.335927
75	H	0.120112	0.837821	0.330751
76	H	0.189871	0.908536	0.330333
77	H	0.204697	0.031769	0.25784
78	H	0.297122	0.035195	0.247763
79	H	0.186891	0.119174	0.336723
80	H	0.116434	0.188645	0.338804
81	H	0.835998	0.117883	0.342205
82	H	0.905743	0.18867	0.342423
83	H	0.997846	0.224443	0.273922
84	H	0.995001	0.317511	0.283491
85	H	0.801914	0.001023	0.273562
86	H	0.708858	0.997356	0.282938
87	C	0.00507	0.371585	0.362829
88	C	0.371465	0.021746	0.309655
89	C	0.02046	0.654711	0.309421
90	C	0.654586	0.004351	0.362442
91	H	0.996003	0.38399	0.394182
92	H	0.383842	0.034014	0.279121
93	H	0.031883	0.64232	0.278644
94	H	0.642114	0.994282	0.393548
95	C	0.012739	0.458202	0.333008
96	C	0.010465	0.567913	0.003761
97	N	0.025384	0.541868	0.298539
98	C	0.027258	0.488775	0.294488
99	C	0.043167	0.46698	0.2533
100	C	0.005276	0.441568	0.223564
101	H	0.013609	0.399752	0.222838
102	H	0.007546	0.456513	0.18851
103	H	0.96511	0.446929	0.235489
104	O	0.08062	0.48761	0.234344
105	N	0.013968	0.405931	0.331484
106	N	0.009216	0.619993	0.006561
107	C	0.568013	0.013051	0.3328
108	C	0.458285	0.010854	0.003665
109	N	0.484323	0.026332	0.298603
110	C	0.53742	0.028249	0.294499
111	C	0.559117	0.044714	0.253372
112	C	0.583462	0.006576	0.223254
113	H	0.625629	0.007436	0.228742
114	H	0.576029	0.015388	0.18717
115	H	0.569406	0.966907	0.229861
116	O	0.538429	0.082677	0.235321
117	N	0.620287	0.014292	0.331304
118	N	0.406209	0.009618	0.006499
119	C	0.916565	0.877071	0.668777
120	C	0.878149	0.914964	0.670542
121	C	0.90229	0.96401	0.671043
122	N	0.95439	0.953824	0.670131
123	C	0.965274	0.901873	0.668818
124	C	0.014432	0.875679	0.667324
125	C	0.0638	0.901388	0.667567
126	N	0.073716	0.953351	0.669123
127	C	0.125562	0.963935	0.667681
128	C	0.150578	0.915473	0.66546
129	C	0.112638	0.877028	0.665676
130	C	0.150512	0.013653	0.667533
131	C	0.123532	0.062402	0.669041
132	N	0.071433	0.07256	0.669922
133	C	0.060562	0.124506	0.671327
134	C	0.109257	0.149333	0.67142
135	C	0.147676	0.111442	0.670052
136	C	0.011441	0.150786	0.672434
137	C	0.962066	0.125138	0.672085
138	N	0.952218	0.073146	0.670871
139	C	0.90039	0.062524	0.6723
140	C	0.875322	0.110995	0.674011
141	C	0.913233	0.149473	0.674059
142	C	0.875413	0.012813	0.67251
143	C	0.819696	0.011913	0.677249
144	C	0.796839	0.017048	0.387745
145	C	0.742186	0.015133	0.393253
146	C	0.708435	0.008093	0.688563
147	C	0.731627	0.00326	0.644629
148	C	0.786405	0.005164	0.639029
149	C	0.011571	0.206513	0.677195
150	C	0.018532	0.229287	0.387536
151	C	0.016995	0.283934	0.393167
152	C	0.008558	0.317759	0.688758
153	C	0.00195	0.294669	0.644958
154	C	0.003432	0.239891	0.639245
155	C	0.206192	0.014756	0.662327
156	C	0.228292	0.0252	0.618932
157	C	0.282885	0.027199	0.61315
158	C	0.317489	0.018573	0.650353
159	C	0.294991	0.007749	0.360437
160	C	0.240237	0.005938	0.36637
161	C	0.014425	0.820002	0.662057
162	C	0.022273	0.797816	0.618281
163	C	0.007694	0.786038	0.366493
164	C	0.009046	0.731272	0.360571
165	C	0.017424	0.708687	0.650113
166	C	0.023893	0.74321	0.612509
167	H	0.030137	0.728903	0.580184
168	H	0.027438	0.821355	0.590256
169	H	0.004487	0.708019	0.388828
170	H	0.002147	0.801026	0.398651
171	H	0.909352	0.837774	0.667886
172	H	0.838944	0.907218	0.67096
173	H	0.980774	0.980565	0.670416
174	H	0.045053	0.04583	0.669261
175	H	0.120112	0.837821	0.664085
176	H	0.189871	0.908536	0.663667
177	H	0.204697	0.031769	0.591175
178	H	0.297122	0.035195	0.581095
179	H	0.225318	0.998364	0.398236
180	H	0.318296	0.001469	0.3884
181	H	0.186891	0.119174	0.670056
182	H	0.116434	0.188645	0.672136
183	H	0.835998	0.117883	0.675539
184	H	0.905743	0.18867	0.675755
185	H	0.024171	0.206135	0.415735
186	H	0.021762	0.298797	0.4255
187	H	0.997846	0.224443	0.607255
188	H	0.995001	0.317511	0.616824
189	H	0.801914	0.001023	0.606895
190	H	0.708858	0.997356	0.616272
191	H	0.727259	0.018655	0.425681
192	H	0.819924	0.021795	0.416112
193	C	0.00507	0.371585	0.696161
194	C	0.371465	0.021746	0.642987
195	C	0.02046	0.654711	0.642754
196	C	0.654586	0.004351	0.695777
197	H	0.996003	0.38399	0.727516
198	H	0.383842	0.034014	0.612454
199	H	0.031883	0.64232	0.611978
200	H	0.642114	0.994282	0.726879
201	C	0.012739	0.458202	0.666341
202	N	0.997804	0.484302	0.371617
203	C	0.996087	0.537238	0.375119
204	C	0.010465	0.567913	0.337095
205	N	0.025384	0.541868	0.631873
206	C	0.027258	0.488775	0.627822
207	H	0.984508	0.554063	0.405221
208	C	0.043167	0.46698	0.586634
209	C	0.005276	0.441568	0.556896
210	H	0.013609	0.399752	0.556169
211	H	0.007546	0.456513	0.521842
212	H	0.96511	0.446929	0.568822
213	O	0.08062	0.48761	0.567678
214	N	0.013968	0.405931	0.664815
215	N	0.009216	0.619993	0.339894
216	C	0.568013	0.013051	0.666131
217	N	0.541911	0.997555	0.371254
218	C	0.488978	0.995839	0.374808
219	C	0.458285	0.010854	0.337
220	N	0.484323	0.026332	0.631935
221	C	0.53742	0.028249	0.627832
222	H	0.472176	0.983819	0.404789
223	C	0.559117	0.044714	0.586706
224	C	0.583462	0.006576	0.556587
225	H	0.625629	0.007436	0.562074
226	H	0.576029	0.015388	0.520502
227	H	0.569406	0.966907	0.563195
228	O	0.538429	0.082677	0.568655
229	N	0.620287	0.014292	0.664637
230	N	0.406209	0.009618	0.339833
231	C	0.916565	0.877071	0.002109
232	C	0.878149	0.914964	0.003877
233	C	0.90229	0.96401	0.004374
234	N	0.95439	0.953824	0.003466
235	C	0.965274	0.901873	0.00215
236	C	0.014432	0.875679	0.000659
237	C	0.0638	0.901388	0.000899
238	N	0.073716	0.953351	0.002455
239	C	0.125562	0.963935	0.001012
240	C	0.150578	0.915473	0.998791
241	C	0.112638	0.877028	0.999007
242	C	0.150512	0.013653	0.000865
243	C	0.123532	0.062402	0.002376
244	N	0.071433	0.07256	0.003253
245	C	0.060562	0.124506	0.004662
246	C	0.109257	0.149333	0.004751
247	C	0.147676	0.111442	0.003384
248	C	0.011441	0.150786	0.005769
249	C	0.962066	0.125138	0.005416
250	N	0.952218	0.073146	0.004206
251	C	0.90039	0.062524	0.005632
252	C	0.875322	0.110995	0.007345
253	C	0.913233	0.149473	0.007393
254	C	0.875413	0.012813	0.005841
255	C	0.819696	0.011913	0.010581
256	C	0.796839	0.017048	0.72108
257	C	0.742186	0.015133	0.726584
258	C	0.731627	0.00326	0.977964
259	C	0.786405	0.005164	0.97236
260	C	0.011571	0.206513	0.010529
261	C	0.018532	0.229287	0.720871
262	C	0.016995	0.283934	0.726502
263	C	0.00195	0.294669	0.978293
264	C	0.003432	0.239891	0.972576
265	C	0.206192	0.014756	0.995662
266	C	0.228292	0.0252	0.952267
267	C	0.282885	0.027199	0.946485
268	C	0.317489	0.018573	0.983687
269	C	0.294991	0.007749	0.693769
270	C	0.240237	0.005938	0.699701
271	C	0.014425	0.820002	0.995391
272	C	0.022273	0.797816	0.951615
273	C	0.007694	0.786038	0.699824
274	C	0.009046	0.731272	0.693902
275	C	0.017424	0.708687	0.983444
276	C	0.023893	0.74321	0.945844
277	H	0.030137	0.728903	0.913518
278	H	0.027438	0.821355	0.923588
279	H	0.004487	0.708019	0.72216
280	H	0.002147	0.801026	0.731986
281	H	0.909352	0.837774	0.001218
282	H	0.838944	0.907218	0.004292
283	H	0.980774	0.980565	0.003747
284	H	0.045053	0.04583	0.002592
285	H	0.120112	0.837821	0.997417
286	H	0.189871	0.908536	0.996999
287	H	0.204697	0.031769	0.924506
288	H	0.297122	0.035195	0.91443
289	H	0.225318	0.998364	0.731571
290	H	0.318296	0.001469	0.721735
291	H	0.186891	0.119174	0.00339
292	H	0.116434	0.188645	0.005471
293	H	0.835998	0.117883	0.008871
294	H	0.905743	0.18867	0.00909
295	H	0.024171	0.206135	0.749067
296	H	0.021762	0.298797	0.758831
297	H	0.997846	0.224443	0.940587
298	H	0.995001	0.317511	0.950155
299	H	0.801914	0.001023	0.940227
300	H	0.708858	0.997356	0.949604
301	H	0.727259	0.018655	0.759013
302	H	0.819924	0.021795	0.749447
303	C	0.371465	0.021746	0.976322
304	C	0.02046	0.654711	0.976086
305	H	0.383842	0.034014	0.945786
306	H	0.031883	0.64232	0.945309
307	C	0.012739	0.458202	0.999675
308	N	0.997804	0.484302	0.704952
309	C	0.996087	0.537238	0.708451
310	C	0.010465	0.567913	0.670429
311	N	0.025384	0.541868	0.965204
312	C	0.027258	0.488775	0.961153
313	H	0.984508	0.554063	0.738555
314	C	0.043167	0.46698	0.919965
315	C	0.005276	0.441568	0.890231
316	H	0.013609	0.399752	0.889504
317	H	0.007546	0.456513	0.855177
318	H	0.96511	0.446929	0.902154
319	O	0.08062	0.48761	0.901009
320	N	0.013968	0.405931	0.99815
321	N	0.009216	0.619993	0.673226
322	C	0.568013	0.013051	0.999466
323	N	0.541911	0.997555	0.704588
324	C	0.488978	0.995839	0.708139
325	C	0.458285	0.010854	0.670333
326	N	0.484323	0.026332	0.965269
327	C	0.53742	0.028249	0.961164
328	H	0.472176	0.983819	0.738124
329	C	0.559117	0.044714	0.920037
330	C	0.583462	0.006576	0.889919
331	H	0.625629	0.007436	0.895409
332	H	0.576029	0.015388	0.853837
333	H	0.569406	0.966907	0.896526
334	O	0.538429	0.082677	0.901986
335	N	0.620287	0.014292	0.997972
336	N	0.406209	0.009618	0.673168
