data_C162H90N36O36_2018-02-15_10:45:58
#******************************************
#
# CIF file created by Zeo++
# Zeo++ is an open source package to
# analyze microporous materials
#
#*******************************************

_cell_length_a		29.4915   
_cell_length_b		29.4914   
_cell_length_c		29.991   
_cell_angle_alpha		90   
_cell_angle_beta		90   
_cell_angle_gamma		120   

_symmetry_space_group_name_H-M		'P1'
_symmetry_Int_Tables_number		1
_symmetry_cell_setting		Monoclinic

loop_
_symmetry_equiv_pos_as_xyz
'+x,+y,+z'

loop_
_atom_site_label
_atom_site_type_symbol
_atom_site_fract_x
_atom_site_fract_y
_atom_site_fract_z
1	C	0.36062	0.638331	0.007541
2	C	0.305443	0.611816	0.007047
3	C	0.278006	0.639752	0.007583
4	C	0.306669	0.694928	0.007053
5	C	0.362042	0.722367	0.007573
6	C	0.388555	0.693702	0.007033
7	H	0.287025	0.715366	0.006303
8	H	0.428636	0.713346	0.006272
9	H	0.285003	0.571735	0.006296
10	N	0.384058	0.609835	0.006621
11	N	0.226073	0.616315	0.006654
12	N	0.39053	0.7743	0.006622
13	C	0.639156	0.361317	0.003545
14	C	0.694527	0.388481	0.004035
15	C	0.722458	0.361221	0.003531
16	C	0.694253	0.305849	0.00405
17	C	0.639058	0.277917	0.003558
18	C	0.611896	0.306125	0.004054
19	H	0.714119	0.285639	0.004848
20	H	0.571817	0.286255	0.004853
21	H	0.714736	0.428561	0.004823
22	N	0.61119	0.38534	0.004412
23	N	0.774446	0.389189	0.004403
24	N	0.615034	0.225928	0.004438
25	C	0.444992	0.583461	0.021864
26	C	0.463414	0.567396	0.059027
27	C	0.487224	0.536535	0.051863
28	C	0.493286	0.521442	0.00856
29	C	0.474316	0.537271	0.305342
30	C	0.450376	0.567678	0.311887
31	H	0.478652	0.52755	0.273483
32	H	0.438531	0.579683	0.284429
33	C	0.521914	0.494891	0.001794
34	C	0.507775	0.446282	0.022515
35	C	0.539988	0.42371	0.016515
36	C	0.586305	0.448471	0.323888
37	C	0.599221	0.496485	0.303118
38	C	0.567645	0.519257	0.308609
39	H	0.529286	0.388755	0.031816
40	H	0.632467	0.516062	0.284236
41	H	0.57931	0.554769	0.293922
42	H	0.501944	0.526626	0.078694
43	N	0.46122	0.420585	0.048094
44	N	0.45817	0.582651	0.102682
45	O	0.47053	0.414059	0.087749
46	O	0.501962	0.609902	0.121049
47	O	0.429347	0.376765	0.031754
48	O	0.430571	0.543548	0.126859
49	C	0.619576	0.428005	0.318828
50	C	0.425538	0.61729	0.027099
51	H	0.651227	0.447151	0.299695
52	H	0.443981	0.647521	0.0478
53	C	0.416905	0.861605	0.021868
54	C	0.432991	0.896088	0.059037
55	C	0.463867	0.950758	0.05188
56	C	0.478924	0.971917	0.008574
57	C	0.463095	0.937129	0.305351
58	C	0.432665	0.882784	0.311892
59	H	0.472816	0.951193	0.273494
60	H	0.420696	0.858931	0.284436
61	C	0.505463	0.027104	0.001827
62	C	0.554089	0.061572	0.022531
63	C	0.57667	0.116356	0.016523
64	C	0.551896	0.137915	0.323916
65	C	0.503869	0.102821	0.303165
66	C	0.481104	0.048474	0.308645
67	H	0.611631	0.140606	0.031814
68	H	0.484312	0.116493	0.284259
69	H	0.445593	0.024624	0.293949
70	H	0.473749	0.975382	0.078713
71	N	0.579794	0.040709	0.048093
72	N	0.417748	0.875587	0.102692
73	O	0.586349	0.056552	0.087746
74	O	0.390513	0.892137	0.121074
75	O	0.623603	0.052645	0.031732
76	O	0.456855	0.887075	0.126859
77	C	0.57238	0.191653	0.318837
78	C	0.38308	0.808325	0.027108
79	H	0.553251	0.204162	0.299686
80	H	0.352893	0.796536	0.047855
81	C	0.138765	0.55538	0.021888
82	C	0.104274	0.536958	0.059048
83	C	0.049603	0.513145	0.051879
84	C	0.028454	0.507088	0.008575
85	C	0.063256	0.526058	0.305359
86	C	0.117603	0.55	0.311909
87	H	0.049202	0.521727	0.273499
88	H	0.141456	0.561848	0.284453
89	C	0.973271	0.478459	0.001804
90	C	0.938799	0.492597	0.022524
91	C	0.884014	0.460385	0.01652
92	C	0.862464	0.41407	0.323894
93	C	0.897563	0.401153	0.303126
94	C	0.951909	0.432731	0.308619
95	H	0.859763	0.471086	0.03182
96	H	0.883893	0.367906	0.284243
97	H	0.975758	0.421063	0.293933
98	H	0.02497	0.498423	0.078708
99	N	0.959657	0.539155	0.048102
100	N	0.124766	0.542197	0.102704
101	O	0.943815	0.529844	0.087755
102	O	0.108222	0.498404	0.12107
103	O	0.94771	0.571026	0.031759
104	O	0.11326	0.569796	0.126881
105	C	0.808727	0.380794	0.318832
106	C	0.192046	0.574832	0.027128
107	H	0.796222	0.349137	0.299707
108	H	0.20383	0.55639	0.047829
109	C	0.36062	0.638331	0.340876
110	C	0.305443	0.611816	0.340379
111	C	0.278006	0.639752	0.340916
112	C	0.306669	0.694928	0.340386
113	C	0.362042	0.722367	0.340906
114	C	0.388555	0.693702	0.340366
115	H	0.287025	0.715366	0.339635
116	H	0.428636	0.713346	0.339605
117	H	0.285003	0.571735	0.339629
118	N	0.384058	0.609835	0.339952
119	N	0.226073	0.616315	0.339986
120	N	0.39053	0.7743	0.339956
121	C	0.639156	0.361317	0.336878
122	C	0.694527	0.388481	0.337368
123	C	0.722458	0.361221	0.336865
124	C	0.694253	0.305849	0.337381
125	C	0.639058	0.277917	0.336891
126	C	0.611896	0.306125	0.337388
127	H	0.714119	0.285639	0.338182
128	H	0.571817	0.286255	0.338185
129	H	0.714736	0.428561	0.338155
130	N	0.61119	0.38534	0.337745
131	N	0.774446	0.389189	0.337735
132	N	0.615034	0.225928	0.337772
133	C	0.444992	0.583461	0.355197
134	C	0.463414	0.567396	0.392361
135	C	0.487224	0.536535	0.385196
136	C	0.493286	0.521442	0.341893
137	C	0.474316	0.537271	0.638675
138	C	0.450376	0.567678	0.645221
139	H	0.478652	0.52755	0.606816
140	H	0.438531	0.579683	0.617762
141	C	0.521914	0.494891	0.335127
142	C	0.507775	0.446282	0.355847
143	C	0.539988	0.42371	0.349849
144	C	0.586305	0.448471	0.657221
145	C	0.599221	0.496485	0.636451
146	C	0.567645	0.519257	0.641943
147	H	0.529286	0.388755	0.36515
148	H	0.632467	0.516062	0.617569
149	H	0.57931	0.554769	0.627255
150	H	0.501944	0.526626	0.412027
151	N	0.46122	0.420585	0.381428
152	N	0.45817	0.582651	0.436014
153	O	0.47053	0.414059	0.421083
154	O	0.501962	0.609902	0.454383
155	O	0.429347	0.376765	0.365086
156	O	0.430571	0.543548	0.460192
157	C	0.619576	0.428005	0.652159
158	C	0.425538	0.61729	0.360432
159	H	0.651227	0.447151	0.633027
160	H	0.443981	0.647521	0.381135
161	C	0.416905	0.861605	0.3552
162	C	0.432991	0.896088	0.392371
163	C	0.463867	0.950758	0.385213
164	C	0.478924	0.971917	0.341906
165	C	0.463095	0.937129	0.638685
166	C	0.432665	0.882784	0.645224
167	H	0.472816	0.951193	0.606826
168	H	0.420696	0.858931	0.617769
169	C	0.505463	0.027104	0.335161
170	C	0.554089	0.061572	0.355864
171	C	0.57667	0.116356	0.349855
172	C	0.551896	0.137915	0.657251
173	C	0.503869	0.102821	0.636498
174	C	0.481104	0.048474	0.64198
175	H	0.611631	0.140606	0.365146
176	H	0.484312	0.116493	0.617592
177	H	0.445593	0.024624	0.627282
178	H	0.473749	0.975382	0.412047
179	N	0.579794	0.040709	0.381425
180	N	0.417748	0.875587	0.436024
181	O	0.586349	0.056552	0.42108
182	O	0.390513	0.892137	0.454407
183	O	0.623603	0.052645	0.365066
184	O	0.456855	0.887075	0.460192
185	C	0.57238	0.191653	0.652169
186	C	0.38308	0.808325	0.360442
187	H	0.553251	0.204162	0.63302
188	H	0.352893	0.796536	0.381188
189	C	0.138765	0.55538	0.35522
190	C	0.104274	0.536958	0.392381
191	C	0.049603	0.513145	0.385213
192	C	0.028454	0.507088	0.341909
193	C	0.063256	0.526058	0.638692
194	C	0.117603	0.55	0.645241
195	H	0.049202	0.521727	0.606832
196	H	0.141456	0.561848	0.617786
197	C	0.973271	0.478459	0.335137
198	C	0.938799	0.492597	0.355857
199	C	0.884014	0.460385	0.349852
200	C	0.862464	0.41407	0.657228
201	C	0.897563	0.401153	0.636458
202	C	0.951909	0.432731	0.641953
203	H	0.859763	0.471086	0.365153
204	H	0.883893	0.367906	0.617576
205	H	0.975758	0.421063	0.627265
206	H	0.02497	0.498423	0.412041
207	N	0.959657	0.539155	0.381435
208	N	0.124766	0.542197	0.436038
209	O	0.943815	0.529844	0.42109
210	O	0.108222	0.498404	0.454403
211	O	0.94771	0.571026	0.365093
212	O	0.11326	0.569796	0.460215
213	C	0.808727	0.380794	0.652166
214	C	0.192046	0.574832	0.360462
215	H	0.796222	0.349137	0.63304
216	H	0.20383	0.55639	0.381161
217	C	0.36062	0.638331	0.674206
218	C	0.305443	0.611816	0.673713
219	C	0.278006	0.639752	0.674249
220	C	0.306669	0.694928	0.673719
221	C	0.362042	0.722367	0.674239
222	C	0.388555	0.693702	0.673699
223	H	0.287025	0.715366	0.672969
224	H	0.428636	0.713346	0.672939
225	H	0.285003	0.571735	0.672962
226	N	0.384058	0.609835	0.673286
227	N	0.226073	0.616315	0.673319
228	N	0.39053	0.7743	0.673289
229	C	0.639156	0.361317	0.670212
230	C	0.694527	0.388481	0.670702
231	C	0.722458	0.361221	0.670198
232	C	0.694253	0.305849	0.670715
233	C	0.639058	0.277917	0.670225
234	C	0.611896	0.306125	0.670718
235	H	0.714119	0.285639	0.671515
236	H	0.571817	0.286255	0.671519
237	H	0.714736	0.428561	0.671489
238	N	0.61119	0.38534	0.671078
239	N	0.774446	0.389189	0.671068
240	N	0.615034	0.225928	0.671105
241	C	0.444992	0.583461	0.68853
242	C	0.463414	0.567396	0.725692
243	C	0.487224	0.536535	0.718529
244	C	0.493286	0.521442	0.675226
245	C	0.474316	0.537271	0.972009
246	C	0.450376	0.567678	0.978554
247	H	0.478652	0.52755	0.940149
248	H	0.438531	0.579683	0.951096
249	C	0.521914	0.494891	0.668461
250	C	0.507775	0.446282	0.689181
251	C	0.539988	0.42371	0.683182
252	C	0.586305	0.448471	0.990555
253	C	0.599221	0.496485	0.969785
254	C	0.567645	0.519257	0.975277
255	H	0.529286	0.388755	0.698483
256	H	0.632467	0.516062	0.950903
257	H	0.57931	0.554769	0.960589
258	H	0.501944	0.526626	0.745361
259	N	0.46122	0.420585	0.714762
260	N	0.45817	0.582651	0.769348
261	O	0.47053	0.414059	0.754414
262	O	0.501962	0.609902	0.787717
263	O	0.429347	0.376765	0.69842
264	O	0.430571	0.543548	0.793525
265	C	0.619576	0.428005	0.985493
266	C	0.425538	0.61729	0.693765
267	H	0.651227	0.447151	0.966361
268	H	0.443981	0.647521	0.714468
269	C	0.416905	0.861605	0.688534
270	C	0.432991	0.896088	0.725702
271	C	0.463867	0.950758	0.718546
272	C	0.478924	0.971917	0.67524
273	C	0.463095	0.937129	0.972019
274	C	0.432665	0.882784	0.978558
275	H	0.472816	0.951193	0.940159
276	H	0.420696	0.858931	0.951103
277	C	0.505463	0.027104	0.668494
278	C	0.554089	0.061572	0.689197
279	C	0.57667	0.116356	0.683189
280	C	0.551896	0.137915	0.990581
281	C	0.503869	0.102821	0.969832
282	C	0.481104	0.048474	0.97531
283	H	0.611631	0.140606	0.69848
284	H	0.484312	0.116493	0.950926
285	H	0.445593	0.024624	0.960616
286	H	0.473749	0.975382	0.745381
287	N	0.579794	0.040709	0.714758
288	N	0.417748	0.875587	0.769358
289	O	0.586349	0.056552	0.754414
290	O	0.390513	0.892137	0.78774
291	O	0.623603	0.052645	0.698397
292	O	0.456855	0.887075	0.793525
293	C	0.57238	0.191653	0.985503
294	C	0.38308	0.808325	0.693775
295	H	0.553251	0.204162	0.966351
296	H	0.352893	0.796536	0.714522
297	C	0.138765	0.55538	0.688554
298	C	0.104274	0.536958	0.725715
299	C	0.049603	0.513145	0.718546
300	C	0.028454	0.507088	0.67524
301	C	0.063256	0.526058	0.972026
302	C	0.117603	0.55	0.978574
303	H	0.049202	0.521727	0.940166
304	H	0.141456	0.561848	0.951119
305	C	0.973271	0.478459	0.668471
306	C	0.938799	0.492597	0.689191
307	C	0.884014	0.460385	0.683185
308	C	0.862464	0.41407	0.990561
309	C	0.897563	0.401153	0.969792
310	C	0.951909	0.432731	0.975283
311	H	0.859763	0.471086	0.698487
312	H	0.883893	0.367906	0.950909
313	H	0.975758	0.421063	0.960599
314	H	0.02497	0.498423	0.745374
315	N	0.959657	0.539155	0.714768
316	N	0.124766	0.542197	0.769371
317	O	0.943815	0.529844	0.75442
318	O	0.108222	0.498404	0.787737
319	O	0.94771	0.571026	0.698423
320	O	0.11326	0.569796	0.793549
321	C	0.808727	0.380794	0.985496
322	C	0.192046	0.574832	0.693795
323	H	0.796222	0.349137	0.966374
324	H	0.20383	0.55639	0.714495
