data_C174H114N36O6_2018-02-15_10:47:48
#******************************************
#
# CIF file created by Zeo++
# Zeo++ is an open source package to
# analyze microporous materials
#
#*******************************************

_cell_length_a		25.7274   
_cell_length_b		25.7272   
_cell_length_c		29.3654   
_cell_angle_alpha		90   
_cell_angle_beta		90   
_cell_angle_gamma		90.0373   

_symmetry_space_group_name_H-M		'P1'
_symmetry_Int_Tables_number		1
_symmetry_cell_setting		Monoclinic

loop_
_symmetry_equiv_pos_as_xyz
'+x,+y,+z'

loop_
_atom_site_label
_atom_site_type_symbol
_atom_site_fract_x
_atom_site_fract_y
_atom_site_fract_z
1	C	0.914582	0.873654	0.3365
2	C	0.875978	0.910965	0.336917
3	C	0.899355	0.960003	0.338252
4	N	0.951293	0.950262	0.339568
5	C	0.962772	0.898674	0.338171
6	C	0.011896	0.872881	0.337526
7	C	0.06066	0.899246	0.337959
8	N	0.070119	0.951086	0.339019
9	C	0.12163	0.962249	0.338125
10	C	0.146874	0.914234	0.336551
11	C	0.109526	0.875621	0.336837
12	C	0.146238	0.011886	0.337679
13	C	0.118688	0.060094	0.338216
14	N	0.066747	0.069824	0.339603
15	C	0.055248	0.121415	0.338444
16	C	0.103433	0.146463	0.336953
17	C	0.142044	0.109154	0.337142
18	C	0.006112	0.147199	0.337875
19	C	0.957353	0.12085	0.338261
20	N	0.947921	0.069009	0.339209
21	C	0.896412	0.057853	0.338457
22	C	0.871151	0.105867	0.337
23	C	0.908487	0.14448	0.337249
24	C	0.871824	0.008212	0.33795
25	C	0.816097	0.006797	0.333816
26	C	0.782915	0.017439	0.037773
27	C	0.728253	0.016197	0.032836
28	C	0.704646	0.004073	0.32382
29	C	0.738342	0.993492	0.2867
30	C	0.792822	0.99502	0.291473
31	C	0.005484	0.202934	0.333667
32	C	0.015932	0.236078	0.037699
33	C	0.014798	0.290752	0.032792
34	C	0.002956	0.314407	0.323738
35	C	0.99261	0.28074	0.286537
36	C	0.994009	0.226257	0.291284
37	C	0.201933	0.013342	0.33304
38	C	0.224653	0.025561	0.290557
39	C	0.27906	0.027622	0.285328
40	C	0.313268	0.01715	0.32211
41	C	0.29025	0.004302	0.031209
42	C	0.235644	0.002557	0.036608
43	C	0.012493	0.817185	0.332837
44	C	0.024211	0.794384	0.290287
45	C	0.001753	0.783559	0.036483
46	C	0.003117	0.728936	0.031099
47	C	0.015554	0.705836	0.321948
48	C	0.025883	0.739967	0.285072
49	H	0.035021	0.725469	0.253599
50	H	0.032108	0.817395	0.262694
51	H	0.995425	0.706116	0.058824
52	H	0.99308	0.798741	0.067779
53	H	0.907758	0.834575	0.334884
54	H	0.837127	0.902814	0.335837
55	H	0.97724	0.977101	0.340717
56	H	0.040799	0.042971	0.340402
57	H	0.117437	0.836732	0.335794
58	H	0.185987	0.907622	0.335158
59	H	0.201586	0.033445	0.263005
60	H	0.293499	0.037031	0.253891
61	H	0.220531	0.993446	0.067838
62	H	0.313123	0.996443	0.058858
63	H	0.180895	0.117319	0.336105
64	H	0.110234	0.185553	0.335466
65	H	0.832034	0.112474	0.33566
66	H	0.900571	0.183372	0.336276
67	H	0.024406	0.220502	0.068889
68	H	0.0226	0.313205	0.060722
69	H	0.986279	0.203588	0.26344
70	H	0.983847	0.295636	0.255126
71	H	0.81552	0.987289	0.263654
72	H	0.723473	0.984576	0.255309
73	H	0.705776	0.024225	0.060697
74	H	0.798457	0.026278	0.068903
75	C	0.001047	0.368462	0.31709
76	C	0.36719	0.020458	0.315122
77	C	0.018724	0.651905	0.314997
78	C	0.650597	0.002191	0.317134
79	H	0.992318	0.381222	0.285992
80	H	0.379327	0.033833	0.285205
81	H	0.031996	0.639754	0.285058
82	H	0.637834	0.993279	0.286074
83	C	0.9966	0.534158	0.303592
84	C	0.008397	0.564581	0.009255
85	C	0.020015	0.536525	0.049333
86	N	0.020347	0.483601	0.049551
87	C	0.009037	0.454938	0.345308
88	N	0.996709	0.481245	0.306566
89	O	0.980402	0.556725	0.26383
90	H	0.028563	0.555699	0.078888
91	C	0.013782	0.546833	0.225481
92	H	0.053552	0.559819	0.23204
93	H	0.998834	0.568507	0.196415
94	H	0.01403	0.505608	0.216527
95	N	0.009796	0.402982	0.34809
96	N	0.007152	0.616814	0.011413
97	C	0.48488	0.998145	0.303626
98	C	0.454512	0.009977	0.009303
99	C	0.482612	0.021653	0.049352
100	N	0.535536	0.021931	0.049547
101	C	0.564146	0.010537	0.345304
102	N	0.537797	0.998192	0.306579
103	O	0.46224	0.98189	0.263903
104	H	0.463471	0.030244	0.078909
105	C	0.472381	0.015026	0.225433
106	H	0.459662	0.054898	0.231844
107	H	0.450618	5.7e-05	0.196416
108	H	0.51361	0.015001	0.216493
109	N	0.616097	0.011209	0.34808
110	N	0.40229	0.008749	0.011475
111	C	0.914582	0.873654	0.669832
112	C	0.875978	0.910965	0.670251
113	C	0.899355	0.960003	0.671586
114	N	0.951293	0.950262	0.6729
115	C	0.962772	0.898674	0.671504
116	C	0.011896	0.872881	0.670861
117	C	0.06066	0.899246	0.671293
118	N	0.070119	0.951086	0.672352
119	C	0.12163	0.962249	0.67146
120	C	0.146874	0.914234	0.669883
121	C	0.109526	0.875621	0.670169
122	C	0.146238	0.011886	0.671014
123	C	0.118688	0.060094	0.671548
124	N	0.066747	0.069824	0.672938
125	C	0.055248	0.121415	0.671777
126	C	0.103433	0.146463	0.670285
127	C	0.142044	0.109154	0.670476
128	C	0.006112	0.147199	0.671208
129	C	0.957353	0.12085	0.671593
130	N	0.947921	0.069009	0.672543
131	C	0.896412	0.057853	0.67179
132	C	0.871151	0.105867	0.670333
133	C	0.908487	0.14448	0.670581
134	C	0.871824	0.008212	0.671283
135	C	0.816097	0.006797	0.667149
136	C	0.782915	0.017439	0.371107
137	C	0.728253	0.016197	0.366169
138	C	0.704646	0.004073	0.657154
139	C	0.738342	0.993492	0.620032
140	C	0.792822	0.99502	0.624806
141	C	0.005484	0.202934	0.666999
142	C	0.015932	0.236078	0.371032
143	C	0.014798	0.290752	0.366125
144	C	0.002956	0.314407	0.657072
145	C	0.99261	0.28074	0.619869
146	C	0.994009	0.226257	0.624619
147	C	0.201933	0.013342	0.666372
148	C	0.224653	0.025561	0.62389
149	C	0.27906	0.027622	0.618663
150	C	0.313268	0.01715	0.655445
151	C	0.29025	0.004302	0.364541
152	C	0.235644	0.002557	0.369942
153	C	0.012493	0.817185	0.666171
154	C	0.024211	0.794384	0.623621
155	C	0.001753	0.783559	0.369816
156	C	0.003117	0.728936	0.364432
157	C	0.015554	0.705836	0.655281
158	C	0.025883	0.739967	0.618404
159	H	0.035021	0.725469	0.586932
160	H	0.032108	0.817395	0.596028
161	H	0.995425	0.706116	0.392159
162	H	0.99308	0.798741	0.401111
163	H	0.907758	0.834575	0.668218
164	H	0.837127	0.902814	0.669172
165	H	0.97724	0.977101	0.674048
166	H	0.040799	0.042971	0.673735
167	H	0.117437	0.836732	0.669127
168	H	0.185987	0.907622	0.66849
169	H	0.201586	0.033445	0.596338
170	H	0.293499	0.037031	0.587225
171	H	0.220531	0.993446	0.401173
172	H	0.313123	0.996443	0.392193
173	H	0.180895	0.117319	0.669437
174	H	0.110234	0.185553	0.6688
175	H	0.832034	0.112474	0.668994
176	H	0.900571	0.183372	0.669607
177	H	0.024406	0.220502	0.402221
178	H	0.0226	0.313205	0.394055
179	H	0.986279	0.203588	0.596773
180	H	0.983847	0.295636	0.588461
181	H	0.81552	0.987289	0.596988
182	H	0.723473	0.984576	0.588641
183	H	0.705776	0.024225	0.394032
184	H	0.798457	0.026278	0.402235
185	C	0.001047	0.368462	0.650425
186	C	0.36719	0.020458	0.648457
187	C	0.018724	0.651905	0.648331
188	C	0.650597	0.002191	0.650469
189	H	0.992318	0.381222	0.619327
190	H	0.379327	0.033833	0.618537
191	H	0.031996	0.639754	0.618391
192	H	0.637834	0.993279	0.619409
193	C	0.9966	0.534158	0.636926
194	C	0.008397	0.564581	0.342587
195	C	0.020015	0.536525	0.382668
196	N	0.020347	0.483601	0.382886
197	C	0.009037	0.454938	0.678642
198	N	0.996709	0.481245	0.639899
199	O	0.980402	0.556725	0.597165
200	H	0.028563	0.555699	0.412223
201	C	0.013782	0.546833	0.558814
202	H	0.053552	0.559819	0.565373
203	H	0.998834	0.568507	0.529749
204	H	0.01403	0.505608	0.549861
205	N	0.009796	0.402982	0.681424
206	N	0.007152	0.616814	0.344746
207	C	0.48488	0.998145	0.63696
208	C	0.454512	0.009977	0.342634
209	C	0.482612	0.021653	0.382685
210	N	0.535536	0.021931	0.382882
211	C	0.564146	0.010537	0.678638
212	N	0.537797	0.998192	0.639913
213	O	0.46224	0.98189	0.597237
214	H	0.463471	0.030244	0.412243
215	C	0.472381	0.015026	0.558766
216	H	0.459662	0.054898	0.565178
217	H	0.450618	5.7e-05	0.529749
218	H	0.51361	0.015001	0.549827
219	N	0.616097	0.011209	0.68141
220	N	0.40229	0.008749	0.344807
221	C	0.914582	0.873654	0.003166
222	C	0.875978	0.910965	0.003585
223	C	0.899355	0.960003	0.00492
224	N	0.951293	0.950262	0.006235
225	C	0.962772	0.898674	0.004839
226	C	0.011896	0.872881	0.004191
227	C	0.06066	0.899246	0.004627
228	N	0.070119	0.951086	0.005686
229	C	0.12163	0.962249	0.004791
230	C	0.146874	0.914234	0.003218
231	C	0.109526	0.875621	0.003504
232	C	0.146238	0.011886	0.004345
233	C	0.118688	0.060094	0.004883
234	N	0.066747	0.069824	0.006269
235	C	0.055248	0.121415	0.005111
236	C	0.103433	0.146463	0.003619
237	C	0.142044	0.109154	0.00381
238	C	0.006112	0.147199	0.004542
239	C	0.957353	0.12085	0.004927
240	N	0.947921	0.069009	0.005877
241	C	0.896412	0.057853	0.005125
242	C	0.871151	0.105867	0.003667
243	C	0.908487	0.14448	0.003916
244	C	0.871824	0.008212	0.004617
245	C	0.816097	0.006797	0.000483
246	C	0.782915	0.017439	0.704441
247	C	0.728253	0.016197	0.699503
248	C	0.704646	0.004073	0.990488
249	C	0.738342	0.993492	0.953366
250	C	0.792822	0.99502	0.958141
251	C	0.005484	0.202934	0.000333
252	C	0.015932	0.236078	0.704366
253	C	0.014798	0.290752	0.699459
254	C	0.002956	0.314407	0.990407
255	C	0.99261	0.28074	0.953203
256	C	0.994009	0.226257	0.95795
257	C	0.201933	0.013342	0.999707
258	C	0.224653	0.025561	0.957225
259	C	0.27906	0.027622	0.951994
260	C	0.313268	0.01715	0.988775
261	C	0.29025	0.004302	0.697875
262	C	0.235644	0.002557	0.703276
263	C	0.012493	0.817185	0.999506
264	C	0.024211	0.794384	0.956952
265	C	0.001753	0.783559	0.70315
266	C	0.003117	0.728936	0.697766
267	C	0.015554	0.705836	0.988615
268	C	0.025883	0.739967	0.951739
269	H	0.035021	0.725469	0.920266
270	H	0.032108	0.817395	0.929362
271	H	0.995425	0.706116	0.725489
272	H	0.99308	0.798741	0.734446
273	H	0.907758	0.834575	0.001552
274	H	0.837127	0.902814	0.002506
275	H	0.97724	0.977101	0.007382
276	H	0.040799	0.042971	0.007069
277	H	0.117437	0.836732	0.002462
278	H	0.185987	0.907622	0.001825
279	H	0.201586	0.033445	0.929672
280	H	0.293499	0.037031	0.920559
281	H	0.220531	0.993446	0.734507
282	H	0.313123	0.996443	0.725527
283	H	0.180895	0.117319	0.002771
284	H	0.110234	0.185553	0.002131
285	H	0.832034	0.112474	0.002329
286	H	0.900571	0.183372	0.002942
287	H	0.024406	0.220502	0.735556
288	H	0.0226	0.313205	0.72739
289	H	0.986279	0.203588	0.930108
290	H	0.983847	0.295636	0.921792
291	H	0.81552	0.987289	0.930322
292	H	0.723473	0.984576	0.921976
293	H	0.705776	0.024225	0.727362
294	H	0.798457	0.026278	0.735569
295	C	0.001047	0.368462	0.983756
296	C	0.36719	0.020458	0.981791
297	C	0.018724	0.651905	0.981665
298	C	0.650597	0.002191	0.9838
299	H	0.992318	0.381222	0.952658
300	H	0.379327	0.033833	0.951871
301	H	0.031996	0.639754	0.951725
302	H	0.637834	0.993279	0.95274
303	C	0.9966	0.534158	0.97026
304	C	0.008397	0.564581	0.675921
305	C	0.020015	0.536525	0.715999
306	N	0.020347	0.483601	0.716217
307	C	0.009037	0.454938	0.011975
308	N	0.996709	0.481245	0.973233
309	O	0.980402	0.556725	0.930496
310	H	0.028563	0.555699	0.745554
311	C	0.013782	0.546833	0.892148
312	H	0.053552	0.559819	0.898707
313	H	0.998834	0.568507	0.863083
314	H	0.01403	0.505608	0.883195
315	N	0.009796	0.402982	0.014757
316	N	0.007152	0.616814	0.67808
317	C	0.48488	0.998145	0.970294
318	C	0.454512	0.009977	0.675969
319	C	0.482612	0.021653	0.716019
320	N	0.535536	0.021931	0.716213
321	C	0.564146	0.010537	0.01197
322	N	0.537797	0.998192	0.973247
323	O	0.46224	0.98189	0.930571
324	H	0.463471	0.030244	0.745578
325	C	0.472381	0.015026	0.8921
326	H	0.459662	0.054898	0.898509
327	H	0.450618	5.7e-05	0.863083
328	H	0.51361	0.015001	0.883161
329	N	0.616097	0.011209	0.014745
330	N	0.40229	0.008749	0.678141
