data_C144H72N54_2018-02-15_10:45:22
#******************************************
#
# CIF file created by Zeo++
# Zeo++ is an open source package to
# analyze microporous materials
#
#*******************************************

_cell_length_a		28.9991   
_cell_length_b		28.9991   
_cell_length_c		29.991   
_cell_angle_alpha		90   
_cell_angle_beta		90   
_cell_angle_gamma		120   

_symmetry_space_group_name_H-M		'P1'
_symmetry_Int_Tables_number		1
_symmetry_cell_setting		Monoclinic

loop_
_symmetry_equiv_pos_as_xyz
'+x,+y,+z'

loop_
_atom_site_label
_atom_site_type_symbol
_atom_site_fract_x
_atom_site_fract_y
_atom_site_fract_z
1	C	0.279199	0.640421	0.998088
2	N	0.305812	0.613029	0.998375
3	C	0.359955	0.638848	0.998015
4	N	0.387343	0.692854	0.998331
5	C	0.361523	0.721176	0.998021
6	N	0.30752	0.694562	0.998378
7	N	0.22668	0.61283	0.999982
8	N	0.386447	0.773697	0.999925
9	N	0.38755	0.613925	0.999912
10	C	0.721285	0.36093	0.002607
11	N	0.693627	0.387266	0.002503
12	C	0.63945	0.360431	0.002587
13	N	0.613111	0.306435	0.002534
14	C	0.639948	0.279093	0.002639
15	N	0.693944	0.306751	0.002555
16	N	0.773859	0.389553	0.002631
17	N	0.616004	0.226522	0.002692
18	N	0.610827	0.384382	0.002585
19	C	0.408763	0.546775	0.33093
20	C	0.408806	0.51025	0.299802
21	N	0.444099	0.49275	0.30389
22	C	0.480421	0.508148	0.337401
23	C	0.481935	0.544287	0.036824
24	C	0.445763	0.563284	0.033126
25	H	0.446258	0.589178	0.056629
26	C	0.516505	0.488919	0.006483
27	C	0.54998	0.435359	0.309075
28	C	0.5888	0.450841	0.009657
29	C	0.590519	0.486522	0.042623
30	H	0.382839	0.496859	0.273534
31	N	0.51597	0.454671	0.308593
32	C	0.554388	0.505762	0.041629
33	C	0.555285	0.541292	0.074246
34	C	0.519314	0.560373	0.071884
35	H	0.58227	0.553776	0.099798
36	H	0.520893	0.586335	0.095764
37	H	0.618257	0.498575	0.067639
38	H	0.547358	0.410194	0.284067
39	C	0.625278	0.43336	0.010345
40	C	0.37274	0.564602	0.326938
41	H	0.662776	0.459004	0.018829
42	H	0.335391	0.538871	0.318155
43	C	0.453586	0.862062	0.330946
44	C	0.490126	0.898647	0.299833
45	N	0.507619	0.951435	0.303937
46	C	0.492206	0.972343	0.337447
47	C	0.456052	0.937705	0.036856
48	C	0.43706	0.882537	0.033142
49	H	0.411158	0.857129	0.056634
50	C	0.511438	0.027658	0.00655
51	C	0.565025	0.114709	0.309182
52	C	0.549534	0.138031	0.009769
53	C	0.51383	0.104053	0.042715
54	H	0.50353	0.886085	0.273566
55	N	0.545706	0.061387	0.308679
56	C	0.494583	0.048681	0.041698
57	C	0.459029	0.01403	0.074298
58	C	0.439951	0.95898	0.071917
59	H	0.446539	0.028521	0.099852
60	H	0.413977	0.934584	0.095787
61	H	0.50177	0.119726	0.067736
62	H	0.590211	0.137267	0.284189
63	C	0.56704	0.191996	0.010497
64	C	0.435762	0.808212	0.326938
65	H	0.541373	0.203851	0.018901
66	H	0.461492	0.796601	0.318135
67	C	0.138317	0.591611	0.330996
68	C	0.101747	0.591563	0.299865
69	N	0.048956	0.556268	0.303953
70	C	0.028032	0.51995	0.337464
71	C	0.062657	0.518437	0.03689
72	C	0.117825	0.554612	0.033192
73	H	0.143224	0.554122	0.056697
74	C	0.972717	0.483866	0.006548
75	C	0.885683	0.450395	0.309142
76	C	0.862344	0.41158	0.009728
77	C	0.896306	0.40986	0.042694
78	H	0.114323	0.617529	0.273597
79	N	0.939003	0.4844	0.308658
80	C	0.951677	0.445987	0.041697
81	C	0.986313	0.445091	0.074314
82	C	0.041364	0.481063	0.071951
83	H	0.971809	0.41811	0.099868
84	H	0.065747	0.479486	0.095833
85	H	0.880623	0.382128	0.067714
86	H	0.863137	0.453015	0.284136
87	C	0.808384	0.375109	0.010429
88	C	0.192167	0.627639	0.327007
89	H	0.796525	0.337606	0.018897
90	H	0.203785	0.664985	0.318217
91	C	0.279199	0.640421	0.331421
92	N	0.305812	0.613029	0.331707
93	C	0.359955	0.638848	0.331349
94	N	0.387343	0.692854	0.331663
95	C	0.361523	0.721176	0.331354
96	N	0.30752	0.694562	0.331711
97	N	0.22668	0.61283	0.333316
98	N	0.386447	0.773697	0.333259
99	N	0.38755	0.613925	0.333245
100	C	0.721285	0.36093	0.33594
101	N	0.693627	0.387266	0.335837
102	C	0.63945	0.360431	0.33592
103	N	0.613111	0.306435	0.335867
104	C	0.639948	0.279093	0.335974
105	N	0.693944	0.306751	0.33589
106	N	0.773859	0.389553	0.335964
107	N	0.616004	0.226522	0.336027
108	N	0.610827	0.384382	0.33592
109	C	0.408763	0.546775	0.664265
110	C	0.408806	0.51025	0.633136
111	N	0.444099	0.49275	0.637224
112	C	0.480421	0.508148	0.670734
113	C	0.481935	0.544287	0.370157
114	C	0.445763	0.563284	0.366459
115	H	0.446258	0.589178	0.389963
116	C	0.516505	0.488919	0.339818
117	C	0.54998	0.435359	0.642408
118	C	0.5888	0.450841	0.342989
119	C	0.590519	0.486522	0.375959
120	H	0.382839	0.496859	0.606868
121	N	0.51597	0.454671	0.641928
122	C	0.554388	0.505762	0.374962
123	C	0.555285	0.541292	0.407578
124	C	0.519314	0.560373	0.405218
125	H	0.58227	0.553776	0.433133
126	H	0.520893	0.586335	0.429098
127	H	0.618257	0.498575	0.400973
128	H	0.547358	0.410194	0.617401
129	C	0.625278	0.43336	0.343679
130	C	0.37274	0.564602	0.66027
131	H	0.662776	0.459004	0.352162
132	H	0.335391	0.538871	0.651488
133	C	0.453586	0.862062	0.664278
134	C	0.490126	0.898647	0.633166
135	N	0.507619	0.951435	0.63727
136	C	0.492206	0.972343	0.670784
137	C	0.456052	0.937705	0.370191
138	C	0.43706	0.882537	0.366476
139	H	0.411158	0.857129	0.38997
140	C	0.511438	0.027658	0.339885
141	C	0.565025	0.114709	0.642515
142	C	0.549534	0.138031	0.343102
143	C	0.51383	0.104053	0.376049
144	H	0.50353	0.886085	0.606901
145	N	0.545706	0.061387	0.642012
146	C	0.494583	0.048681	0.375032
147	C	0.459029	0.01403	0.407632
148	C	0.439951	0.95898	0.405251
149	H	0.446539	0.028521	0.433186
150	H	0.413977	0.934584	0.429121
151	H	0.50177	0.119726	0.40107
152	H	0.590211	0.137267	0.617524
153	C	0.56704	0.191996	0.343829
154	C	0.435762	0.808212	0.66027
155	H	0.541373	0.203851	0.352235
156	H	0.461492	0.796601	0.651468
157	C	0.138317	0.591611	0.664328
158	C	0.101747	0.591563	0.633199
159	N	0.048956	0.556268	0.637287
160	C	0.028032	0.51995	0.670797
161	C	0.062657	0.518437	0.370224
162	C	0.117825	0.554612	0.366526
163	H	0.143224	0.554122	0.39003
164	C	0.972717	0.483866	0.339881
165	C	0.885683	0.450395	0.642475
166	C	0.862344	0.41158	0.343062
167	C	0.896306	0.40986	0.376029
168	H	0.114323	0.617529	0.606931
169	N	0.939003	0.4844	0.641992
170	C	0.951677	0.445987	0.375032
171	C	0.986313	0.445091	0.407648
172	C	0.041364	0.481063	0.405284
173	H	0.971809	0.41811	0.433203
174	H	0.065747	0.479486	0.429168
175	H	0.880623	0.382128	0.401046
176	H	0.863137	0.453015	0.617471
177	C	0.808384	0.375109	0.343763
178	C	0.192167	0.627639	0.660341
179	H	0.796525	0.337606	0.352232
180	H	0.203785	0.664985	0.651551
181	C	0.279199	0.640421	0.664755
182	N	0.305812	0.613029	0.665042
183	C	0.359955	0.638848	0.664682
184	N	0.387343	0.692854	0.664999
185	C	0.361523	0.721176	0.664688
186	N	0.30752	0.694562	0.665045
187	N	0.22668	0.61283	0.666649
188	N	0.386447	0.773697	0.666592
189	N	0.38755	0.613925	0.666579
190	C	0.721285	0.36093	0.669273
191	N	0.693627	0.387266	0.66917
192	C	0.63945	0.360431	0.669253
193	N	0.613111	0.306435	0.669203
194	C	0.639948	0.279093	0.669307
195	N	0.693944	0.306751	0.669223
196	N	0.773859	0.389553	0.6693
197	N	0.616004	0.226522	0.66936
198	N	0.610827	0.384382	0.669253
199	C	0.408763	0.546775	0.997598
200	C	0.408806	0.51025	0.966469
201	N	0.444099	0.49275	0.970556
202	C	0.480421	0.508148	0.004067
203	C	0.481935	0.544287	0.703493
204	C	0.445763	0.563284	0.699792
205	H	0.446258	0.589178	0.723296
206	C	0.516505	0.488919	0.673151
207	C	0.54998	0.435359	0.975741
208	C	0.5888	0.450841	0.676325
209	C	0.590519	0.486522	0.709292
210	H	0.382839	0.496859	0.940201
211	N	0.51597	0.454671	0.975261
212	C	0.554388	0.505762	0.708298
213	C	0.555285	0.541292	0.740915
214	C	0.519314	0.560373	0.738551
215	H	0.58227	0.553776	0.766466
216	H	0.520893	0.586335	0.762431
217	H	0.618257	0.498575	0.734306
218	H	0.547358	0.410194	0.950734
219	C	0.625278	0.43336	0.677012
220	C	0.37274	0.564602	0.993607
221	H	0.662776	0.459004	0.685498
222	H	0.335391	0.538871	0.984821
223	C	0.453586	0.862062	0.997615
224	C	0.490126	0.898647	0.966502
225	N	0.507619	0.951435	0.970603
226	C	0.492206	0.972343	0.004114
227	C	0.456052	0.937705	0.703523
228	C	0.43706	0.882537	0.699809
229	H	0.411158	0.857129	0.723303
230	C	0.511438	0.027658	0.673218
231	C	0.565025	0.114709	0.975848
232	C	0.549534	0.138031	0.676435
233	C	0.51383	0.104053	0.709382
234	H	0.50353	0.886085	0.940234
235	N	0.545706	0.061387	0.975348
236	C	0.494583	0.048681	0.708365
237	C	0.459029	0.01403	0.740965
238	C	0.439951	0.95898	0.738584
239	H	0.446539	0.028521	0.766519
240	H	0.413977	0.934584	0.762454
241	H	0.50177	0.119726	0.734403
242	H	0.590211	0.137267	0.950857
243	C	0.56704	0.191996	0.677166
244	C	0.435762	0.808212	0.993607
245	H	0.541373	0.203851	0.685568
246	H	0.461492	0.796601	0.984801
247	C	0.138317	0.591611	0.997665
248	C	0.101747	0.591563	0.966532
249	N	0.048956	0.556268	0.97062
250	C	0.028032	0.51995	0.00413
251	C	0.062657	0.518437	0.703557
252	C	0.117825	0.554612	0.699859
253	H	0.143224	0.554122	0.723366
254	C	0.972717	0.483866	0.673214
255	C	0.885683	0.450395	0.975811
256	C	0.862344	0.41158	0.676395
257	C	0.896306	0.40986	0.709362
258	H	0.114323	0.617529	0.940264
259	N	0.939003	0.4844	0.975325
260	C	0.951677	0.445987	0.708365
261	C	0.986313	0.445091	0.740981
262	C	0.041364	0.481063	0.738617
263	H	0.971809	0.41811	0.766536
264	H	0.065747	0.479486	0.762501
265	H	0.880623	0.382128	0.734383
266	H	0.863137	0.453015	0.950804
267	C	0.808384	0.375109	0.677096
268	C	0.192167	0.627639	0.993673
269	H	0.796525	0.337606	0.685565
270	H	0.203785	0.664985	0.984884
