data_C126H54N72O36_2018-02-15_10:45:25
#******************************************
#
# CIF file created by Zeo++
# Zeo++ is an open source package to
# analyze microporous materials
#
#*******************************************

_cell_length_a		29.1831   
_cell_length_b		29.1831   
_cell_length_c		29.964   
_cell_angle_alpha		90   
_cell_angle_beta		90   
_cell_angle_gamma		120   

_symmetry_space_group_name_H-M		'P1'
_symmetry_Int_Tables_number		1
_symmetry_cell_setting		Monoclinic

loop_
_symmetry_equiv_pos_as_xyz
'+x,+y,+z'

loop_
_atom_site_label
_atom_site_type_symbol
_atom_site_fract_x
_atom_site_fract_y
_atom_site_fract_z
1	C	0.280288	0.637767	0.001519
2	N	0.309938	0.613857	0.001878
3	C	0.363726	0.642804	0.001476
4	N	0.387631	0.696363	0.001849
5	C	0.358687	0.721207	0.001472
6	N	0.305127	0.691555	0.001875
7	N	0.228225	0.607763	0.003173
8	N	0.38074	0.773266	0.003141
9	N	0.393741	0.620761	0.003142
10	C	0.721622	0.359567	0.00588
11	N	0.695542	0.387331	0.005714
12	C	0.641922	0.36233	0.005887
13	N	0.614158	0.308489	0.005727
14	C	0.639159	0.27987	0.005887
15	N	0.693002	0.305946	0.005714
16	N	0.773831	0.382342	0.005266
17	N	0.609714	0.227662	0.005301
18	N	0.619156	0.391773	0.0053
19	C	0.553387	0.414762	0.010912
20	C	0.513293	0.410104	0.040049
21	N	0.493849	0.443416	0.036155
22	C	0.510921	0.48298	0.005527
23	C	0.551265	0.489955	0.308546
24	C	0.572305	0.455587	0.311983
25	H	0.600933	0.45988	0.28985
26	C	0.483644	0.511729	0.003331
27	C	0.470729	0.531944	0.041415
28	C	0.438708	0.555309	0.035418
29	C	0.419263	0.557837	0.326182
30	C	0.433586	0.537147	0.289683
31	N	0.464306	0.515073	0.296238
32	H	0.428285	0.569098	0.06279
33	H	0.420058	0.537112	0.258176
34	H	0.497525	0.381143	0.063877
35	N	0.490165	0.529001	0.083962
36	N	0.570168	0.531062	0.276522
37	O	0.453003	0.502479	0.11073
38	O	0.563408	0.513075	0.237489
39	O	0.618539	0.563408	0.282069
40	O	0.519065	0.574262	0.10019
41	C	0.383986	0.57586	0.320615
42	C	0.570739	0.37846	0.013077
43	H	0.350786	0.55341	0.30361
44	H	0.544902	0.341328	0.021731
45	C	0.586724	0.138904	0.010914
46	C	0.591385	0.103466	0.040047
47	N	0.558067	0.050709	0.036155
48	C	0.518481	0.028222	0.005545
49	C	0.511525	0.061588	0.30855
50	C	0.545906	0.116995	0.311976
51	H	0.541604	0.141334	0.289853
52	C	0.48981	0.972195	0.003321
53	C	0.469576	0.93905	0.041396
54	C	0.446211	0.883667	0.035388
55	C	0.443691	0.861707	0.326147
56	C	0.464362	0.896728	0.289653
57	N	0.486421	0.949519	0.296217
58	H	0.432406	0.859444	0.062754
59	H	0.464328	0.883236	0.258131
60	H	0.620353	0.116657	0.063867
61	N	0.472505	0.961413	0.083948
62	N	0.470427	0.039381	0.276518
63	O	0.499015	0.950762	0.11072
64	O	0.488427	0.050598	0.237488
65	O	0.438086	0.055417	0.282046
66	O	0.427236	0.945048	0.100166
67	C	0.425619	0.808398	0.320567
68	C	0.623026	0.192558	0.013077
69	H	0.448028	0.797632	0.30352
70	H	0.66016	0.203851	0.021728
71	C	0.862584	0.448152	0.010877
72	C	0.898015	0.488258	0.04001
73	N	0.950775	0.507713	0.036118
74	C	0.973269	0.490652	0.005487
75	C	0.93991	0.450285	0.308519
76	C	0.884499	0.429235	0.311955
77	H	0.860162	0.400565	0.28985
78	C	0.029295	0.517957	0.003282
79	C	0.062425	0.530852	0.041366
80	C	0.117812	0.562862	0.035374
81	C	0.139789	0.582294	0.326138
82	C	0.104786	0.567967	0.289634
83	N	0.051991	0.537246	0.296184
84	H	0.142024	0.573241	0.062744
85	H	0.118292	0.5814	0.25811
86	H	0.884811	0.50399	0.063858
87	N	0.04004	0.511409	0.083912
88	N	0.962124	0.431376	0.276509
89	O	0.050694	0.548567	0.110688
90	O	0.950885	0.438106	0.237471
91	O	0.946113	0.383009	0.282077
92	O	0.056386	0.482489	0.100131
93	C	0.193105	0.617505	0.320555
94	C	0.808922	0.430759	0.013063
95	H	0.203891	0.650674	0.303494
96	H	0.797609	0.456564	0.021771
97	C	0.280288	0.637767	0.334852
98	N	0.309938	0.613857	0.335212
99	C	0.363726	0.642804	0.334808
100	N	0.387631	0.696363	0.335182
101	C	0.358687	0.721207	0.334805
102	N	0.305127	0.691555	0.335209
103	N	0.228225	0.607763	0.336507
104	N	0.38074	0.773266	0.336474
105	N	0.393741	0.620761	0.336474
106	C	0.721622	0.359567	0.339214
107	N	0.695542	0.387331	0.339047
108	C	0.641922	0.36233	0.33922
109	N	0.614158	0.308489	0.33906
110	C	0.639159	0.27987	0.33922
111	N	0.693002	0.305946	0.339047
112	N	0.773831	0.382342	0.3386
113	N	0.609714	0.227662	0.338633
114	N	0.619156	0.391773	0.338633
115	C	0.553387	0.414762	0.344246
116	C	0.513293	0.410104	0.373381
117	N	0.493849	0.443416	0.36949
118	C	0.510921	0.48298	0.33886
119	C	0.551265	0.489955	0.64188
120	C	0.572305	0.455587	0.645318
121	H	0.600933	0.45988	0.623184
122	C	0.483644	0.511729	0.336664
123	C	0.470729	0.531944	0.37475
124	C	0.438708	0.555309	0.368752
125	C	0.419263	0.557837	0.659515
126	C	0.433586	0.537147	0.623018
127	N	0.464306	0.515073	0.629572
128	H	0.428285	0.569098	0.396122
129	H	0.420058	0.537112	0.59151
130	H	0.497525	0.381143	0.39721
131	N	0.490165	0.529001	0.417294
132	N	0.570168	0.531062	0.609855
133	O	0.453003	0.502479	0.444063
134	O	0.563408	0.513075	0.570822
135	O	0.618539	0.563408	0.615402
136	O	0.519065	0.574262	0.433524
137	C	0.383986	0.57586	0.653948
138	C	0.570739	0.37846	0.346409
139	H	0.350786	0.55341	0.636944
140	H	0.544902	0.341328	0.355066
141	C	0.586724	0.138904	0.344246
142	C	0.591385	0.103466	0.373381
143	N	0.558067	0.050709	0.369487
144	C	0.518481	0.028222	0.33888
145	C	0.511525	0.061588	0.641884
146	C	0.545906	0.116995	0.645311
147	H	0.541604	0.141334	0.623188
148	C	0.48981	0.972195	0.336654
149	C	0.469576	0.93905	0.37473
150	C	0.446211	0.883667	0.368722
151	C	0.443691	0.861707	0.659481
152	C	0.464362	0.896728	0.622988
153	N	0.486421	0.949519	0.629552
154	H	0.432406	0.859444	0.396089
155	H	0.464328	0.883236	0.591463
156	H	0.620353	0.116657	0.3972
157	N	0.472505	0.961413	0.417281
158	N	0.470427	0.039381	0.609852
159	O	0.499015	0.950762	0.444053
160	O	0.488427	0.050598	0.570822
161	O	0.438086	0.055417	0.615378
162	O	0.427236	0.945048	0.4335
163	C	0.425619	0.808398	0.653901
164	C	0.623026	0.192558	0.346409
165	H	0.448028	0.797632	0.636854
166	H	0.66016	0.203851	0.355063
167	C	0.862584	0.448152	0.34421
168	C	0.898015	0.488258	0.373345
169	N	0.950775	0.507713	0.369453
170	C	0.973269	0.490652	0.33882
171	C	0.93991	0.450285	0.641854
172	C	0.884499	0.429235	0.645288
173	H	0.860162	0.400565	0.623184
174	C	0.029295	0.517957	0.336614
175	C	0.062425	0.530852	0.3747
176	C	0.117812	0.562862	0.368706
177	C	0.139789	0.582294	0.659471
178	C	0.104786	0.567967	0.622968
179	N	0.051991	0.537246	0.629519
180	H	0.142024	0.573241	0.396079
181	H	0.118292	0.5814	0.591443
182	H	0.884811	0.50399	0.39719
183	N	0.04004	0.511409	0.417244
184	N	0.962124	0.431376	0.609842
185	O	0.050694	0.548567	0.444023
186	O	0.950885	0.438106	0.570805
187	O	0.946113	0.383009	0.615412
188	O	0.056386	0.482489	0.433463
189	C	0.193105	0.617505	0.653888
190	C	0.808922	0.430759	0.346396
191	H	0.203891	0.650674	0.636827
192	H	0.797609	0.456564	0.355103
193	C	0.280288	0.637767	0.668185
194	N	0.309938	0.613857	0.668546
195	C	0.363726	0.642804	0.668142
196	N	0.387631	0.696363	0.668516
197	C	0.358687	0.721207	0.668138
198	N	0.305127	0.691555	0.668542
199	N	0.228225	0.607763	0.66984
200	N	0.38074	0.773266	0.669807
201	N	0.393741	0.620761	0.669807
202	C	0.721622	0.359567	0.672547
203	N	0.695542	0.387331	0.67238
204	C	0.641922	0.36233	0.672554
205	N	0.614158	0.308489	0.672393
206	C	0.639159	0.27987	0.672554
207	N	0.693002	0.305946	0.67238
208	N	0.773831	0.382342	0.671933
209	N	0.609714	0.227662	0.671966
210	N	0.619156	0.391773	0.671966
211	C	0.553387	0.414762	0.67758
212	C	0.513293	0.410104	0.706715
213	N	0.493849	0.443416	0.702823
214	C	0.510921	0.48298	0.672193
215	C	0.551265	0.489955	0.975214
216	C	0.572305	0.455587	0.978651
217	H	0.600933	0.45988	0.956518
218	C	0.483644	0.511729	0.669997
219	C	0.470729	0.531944	0.708083
220	C	0.438708	0.555309	0.702086
221	C	0.419263	0.557837	0.992848
222	C	0.433586	0.537147	0.956351
223	N	0.464306	0.515073	0.962905
224	H	0.428285	0.569098	0.729455
225	H	0.420058	0.537112	0.924843
226	H	0.497525	0.381143	0.730543
227	N	0.490165	0.529001	0.750627
228	N	0.570168	0.531062	0.943188
229	O	0.453003	0.502479	0.777396
230	O	0.563408	0.513075	0.904155
231	O	0.618539	0.563408	0.948735
232	O	0.519065	0.574262	0.766857
233	C	0.383986	0.57586	0.987281
234	C	0.570739	0.37846	0.679746
235	H	0.350786	0.55341	0.970278
236	H	0.544902	0.341328	0.688399
237	C	0.586724	0.138904	0.67758
238	C	0.591385	0.103466	0.706715
239	N	0.558067	0.050709	0.70282
240	C	0.518481	0.028222	0.672213
241	C	0.511525	0.061588	0.975217
242	C	0.545906	0.116995	0.978644
243	H	0.541604	0.141334	0.956521
244	C	0.48981	0.972195	0.669987
245	C	0.469576	0.93905	0.708063
246	C	0.446211	0.883667	0.702056
247	C	0.443691	0.861707	0.992815
248	C	0.464362	0.896728	0.956321
249	N	0.486421	0.949519	0.962885
250	H	0.432406	0.859444	0.729422
251	H	0.464328	0.883236	0.924796
252	H	0.620353	0.116657	0.730533
253	N	0.472505	0.961413	0.750614
254	N	0.470427	0.039381	0.943185
255	O	0.499015	0.950762	0.777386
256	O	0.488427	0.050598	0.904155
257	O	0.438086	0.055417	0.948712
258	O	0.427236	0.945048	0.766833
259	C	0.425619	0.808398	0.987235
260	C	0.623026	0.192558	0.679742
261	H	0.448028	0.797632	0.970187
262	H	0.66016	0.203851	0.688396
263	C	0.862584	0.448152	0.677543
264	C	0.898015	0.488258	0.706678
265	N	0.950775	0.507713	0.702787
266	C	0.973269	0.490652	0.672153
267	C	0.93991	0.450285	0.975187
268	C	0.884499	0.429235	0.978621
269	H	0.860162	0.400565	0.956518
270	C	0.029295	0.517957	0.669947
271	C	0.062425	0.530852	0.708033
272	C	0.117812	0.562862	0.702039
273	C	0.139789	0.582294	0.992805
274	C	0.104786	0.567967	0.956301
275	N	0.051991	0.537246	0.962852
276	H	0.142024	0.573241	0.729412
277	H	0.118292	0.5814	0.924776
278	H	0.884811	0.50399	0.730523
279	N	0.04004	0.511409	0.750577
280	N	0.962124	0.431376	0.943175
281	O	0.050694	0.548567	0.777356
282	O	0.950885	0.438106	0.904138
283	O	0.946113	0.383009	0.948745
284	O	0.056386	0.482489	0.766797
285	C	0.193105	0.617505	0.987221
286	C	0.808922	0.430759	0.679729
287	H	0.203891	0.650674	0.970161
288	H	0.797609	0.456564	0.688436
