data_C216H72N144_2018-02-15_10:38:24
#******************************************
#
# CIF file created by Zeo++
# Zeo++ is an open source package to
# analyze microporous materials
#
#*******************************************

_cell_length_a		28.7843   
_cell_length_b		28.7844   
_cell_length_c		29.4646   
_cell_angle_alpha		90   
_cell_angle_beta		90   
_cell_angle_gamma		120   

_symmetry_space_group_name_H-M		'P1'
_symmetry_Int_Tables_number		1
_symmetry_cell_setting		Monoclinic

loop_
_symmetry_equiv_pos_as_xyz
'+x,+y,+z'

loop_
_atom_site_label
_atom_site_type_symbol
_atom_site_fract_x
_atom_site_fract_y
_atom_site_fract_z
1	C	0.207663	0.397151	0.007997
2	N	0.15313	0.369587	0.008455
3	C	0.125563	0.315055	0.007997
4	N	0.153127	0.288085	0.008455
5	C	0.20766	0.315051	0.007997
6	N	0.234629	0.369584	0.008455
7	C	0.319598	0.121024	0.008007
8	N	0.374131	0.148583	0.008462
9	C	0.401692	0.203115	0.008007
10	N	0.374134	0.230089	0.008462
11	C	0.319601	0.203119	0.008007
12	N	0.292627	0.148586	0.008462
13	C	0.291562	0.231155	0.010289
14	C	0.277746	0.244971	0.052054
15	C	0.249512	0.273202	0.052052
16	C	0.235699	0.287015	0.010285
17	N	0.250475	0.27224	0.30483
18	H	0.239298	0.283415	0.082168
19	H	0.287958	0.23476	0.082172
20	N	0.276788	0.245928	0.304832
21	C	0.291557	0.064949	0.01029
22	C	0.277744	0.037317	0.052054
23	C	0.249514	0.480853	0.052052
24	C	0.235703	0.453225	0.010285
25	N	0.250476	0.482774	0.30483
26	H	0.239301	0.460426	0.082168
27	H	0.287955	0.057741	0.082173
28	N	0.276787	0.035402	0.304832
29	C	0.457767	0.231154	0.01029
30	C	0.485398	0.24497	0.052055
31	C	0.041862	0.273203	0.052052
32	C	0.069489	0.287016	0.010285
33	N	0.039938	0.27224	0.30483
34	H	0.06229	0.283417	0.082169
35	H	0.464975	0.234757	0.082173
36	N	0.487312	0.245927	0.304832
37	C	0.207663	0.397151	0.341332
38	N	0.15313	0.369587	0.34179
39	C	0.125563	0.315055	0.341332
40	N	0.153127	0.288085	0.341787
41	C	0.20766	0.315051	0.341332
42	N	0.234629	0.369584	0.341787
43	C	0.319598	0.121024	0.341342
44	N	0.374131	0.148583	0.341797
45	C	0.401692	0.203115	0.341342
46	N	0.374134	0.230089	0.341797
47	C	0.319601	0.203119	0.341342
48	N	0.292627	0.148586	0.341797
49	C	0.291562	0.231155	0.343623
50	C	0.277746	0.244971	0.385388
51	C	0.249512	0.273202	0.385385
52	C	0.235699	0.287015	0.343619
53	N	0.250475	0.27224	0.638163
54	H	0.239298	0.283415	0.415502
55	H	0.287958	0.23476	0.415506
56	N	0.276788	0.245928	0.638166
57	C	0.291557	0.064949	0.343623
58	C	0.277744	0.037317	0.385388
59	C	0.249514	0.480853	0.385385
60	C	0.235703	0.453225	0.343619
61	N	0.250476	0.482774	0.638163
62	H	0.239301	0.460426	0.415502
63	H	0.287955	0.057741	0.415506
64	N	0.276787	0.035402	0.638166
65	C	0.457767	0.231154	0.343623
66	C	0.485398	0.24497	0.385388
67	C	0.041862	0.273203	0.385385
68	C	0.069489	0.287016	0.343619
69	N	0.039938	0.27224	0.638163
70	H	0.06229	0.283417	0.415502
71	H	0.464975	0.234757	0.415506
72	N	0.487312	0.245927	0.638166
73	C	0.207663	0.397151	0.674664
74	N	0.15313	0.369587	0.675122
75	C	0.125563	0.315055	0.674664
76	N	0.153127	0.288085	0.675122
77	C	0.20766	0.315051	0.674664
78	N	0.234629	0.369584	0.675122
79	C	0.319598	0.121024	0.674674
80	N	0.374131	0.148583	0.675129
81	C	0.401692	0.203115	0.674674
82	N	0.374134	0.230089	0.675129
83	C	0.319601	0.203119	0.674674
84	N	0.292627	0.148586	0.675129
85	C	0.291562	0.231155	0.676955
86	C	0.277746	0.244971	0.718721
87	C	0.249512	0.273202	0.718717
88	C	0.235699	0.287015	0.676952
89	N	0.250475	0.27224	0.971495
90	H	0.239298	0.283415	0.748835
91	H	0.287958	0.23476	0.748838
92	N	0.276788	0.245928	0.971499
93	C	0.291557	0.064949	0.676955
94	C	0.277744	0.037317	0.718721
95	C	0.249514	0.480853	0.718717
96	C	0.235703	0.453225	0.676952
97	N	0.250476	0.482774	0.971495
98	H	0.239301	0.460426	0.748835
99	H	0.287955	0.057741	0.748838
100	N	0.276787	0.035402	0.971499
101	C	0.457767	0.231154	0.676955
102	C	0.485398	0.24497	0.718721
103	C	0.041862	0.273203	0.718717
104	C	0.069489	0.287016	0.676952
105	N	0.039938	0.27224	0.971495
106	H	0.06229	0.283417	0.748835
107	H	0.464975	0.234757	0.748838
108	N	0.487312	0.245927	0.971499
109	C	0.207664	0.897152	0.007997
110	N	0.153129	0.869584	0.008455
111	C	0.125564	0.815055	0.007997
112	N	0.153128	0.788086	0.008455
113	C	0.20766	0.815051	0.007997
114	N	0.23463	0.869584	0.008455
115	C	0.319599	0.621025	0.008007
116	N	0.37413	0.64858	0.008462
117	C	0.401692	0.703113	0.008007
118	N	0.374133	0.730087	0.008462
119	C	0.319601	0.703117	0.008007
120	N	0.292627	0.648584	0.008462
121	C	0.291562	0.731154	0.010289
122	C	0.277746	0.74497	0.052054
123	C	0.249511	0.773199	0.052052
124	C	0.235699	0.787015	0.010285
125	N	0.250475	0.77224	0.30483
126	H	0.239297	0.783412	0.082168
127	H	0.287959	0.73476	0.082172
128	N	0.276789	0.745928	0.304832
129	C	0.291557	0.564947	0.01029
130	C	0.277744	0.537315	0.052054
131	C	0.249515	0.980853	0.052052
132	C	0.235704	0.953225	0.010285
133	N	0.250476	0.982774	0.30483
134	H	0.2393	0.960422	0.082168
135	H	0.287955	0.557738	0.082173
136	N	0.276787	0.535402	0.304832
137	C	0.457768	0.731154	0.01029
138	C	0.4854	0.74497	0.052055
139	C	0.041863	0.773203	0.052052
140	C	0.069489	0.787015	0.010285
141	N	0.039939	0.77224	0.30483
142	H	0.06229	0.783416	0.082169
143	H	0.464975	0.734756	0.082173
144	N	0.487315	0.745928	0.304832
145	C	0.207664	0.897152	0.341332
146	N	0.153129	0.869584	0.34179
147	C	0.125564	0.815055	0.341332
148	N	0.153128	0.788086	0.341787
149	C	0.20766	0.815051	0.341332
150	N	0.23463	0.869584	0.341787
151	C	0.319599	0.621025	0.341342
152	N	0.37413	0.64858	0.341797
153	C	0.401692	0.703113	0.341342
154	N	0.374133	0.730087	0.341797
155	C	0.319601	0.703117	0.341342
156	N	0.292627	0.648584	0.341797
157	C	0.291562	0.731154	0.343623
158	C	0.277746	0.74497	0.385388
159	C	0.249511	0.773199	0.385385
160	C	0.235699	0.787015	0.343619
161	N	0.250475	0.77224	0.638163
162	H	0.239297	0.783412	0.415502
163	H	0.287959	0.73476	0.415506
164	N	0.276789	0.745928	0.638166
165	C	0.291557	0.564947	0.343623
166	C	0.277744	0.537315	0.385388
167	C	0.249515	0.980853	0.385385
168	C	0.235704	0.953225	0.343619
169	N	0.250476	0.982774	0.638163
170	H	0.2393	0.960422	0.415502
171	H	0.287955	0.557738	0.415506
172	N	0.276787	0.535402	0.638166
173	C	0.457768	0.731154	0.343623
174	C	0.4854	0.74497	0.385388
175	C	0.041863	0.773203	0.385385
176	C	0.069489	0.787015	0.343619
177	N	0.039939	0.77224	0.638163
178	H	0.06229	0.783416	0.415502
179	H	0.464975	0.734756	0.415506
180	N	0.487315	0.745928	0.638166
181	C	0.207664	0.897152	0.674664
182	N	0.153129	0.869584	0.675122
183	C	0.125564	0.815055	0.674664
184	N	0.153128	0.788086	0.675122
185	C	0.20766	0.815051	0.674664
186	N	0.23463	0.869584	0.675122
187	C	0.319599	0.621025	0.674674
188	N	0.37413	0.64858	0.675129
189	C	0.401692	0.703113	0.674674
190	N	0.374133	0.730087	0.675129
191	C	0.319601	0.703117	0.674674
192	N	0.292627	0.648584	0.675129
193	C	0.291562	0.731154	0.676955
194	C	0.277746	0.74497	0.718721
195	C	0.249511	0.773199	0.718717
196	C	0.235699	0.787015	0.676952
197	N	0.250475	0.77224	0.971495
198	H	0.239297	0.783412	0.748835
199	H	0.287959	0.73476	0.748838
200	N	0.276789	0.745928	0.971499
201	C	0.291557	0.564947	0.676955
202	C	0.277744	0.537315	0.718721
203	C	0.249515	0.980853	0.718717
204	C	0.235704	0.953225	0.676952
205	N	0.250476	0.982774	0.971495
206	H	0.2393	0.960422	0.748835
207	H	0.287955	0.557738	0.748838
208	N	0.276787	0.535402	0.971499
209	C	0.457768	0.731154	0.676955
210	C	0.4854	0.74497	0.718721
211	C	0.041863	0.773203	0.718717
212	C	0.069489	0.787015	0.676952
213	N	0.039939	0.77224	0.971495
214	H	0.06229	0.783416	0.748835
215	H	0.464975	0.734756	0.748838
216	N	0.487315	0.745928	0.971499
217	C	0.707663	0.397151	0.007997
218	N	0.653129	0.369587	0.008455
219	C	0.625564	0.315055	0.007997
220	N	0.653126	0.288085	0.008455
221	C	0.707659	0.315051	0.007997
222	N	0.734631	0.369584	0.008455
223	C	0.8196	0.121024	0.008007
224	N	0.87413	0.148583	0.008462
225	C	0.901692	0.203115	0.008007
226	N	0.874132	0.230089	0.008462
227	C	0.819601	0.203119	0.008007
228	N	0.792629	0.148586	0.008462
229	C	0.791561	0.231155	0.010289
230	C	0.777746	0.244971	0.052054
231	C	0.749512	0.273202	0.052052
232	C	0.735699	0.287015	0.010285
233	N	0.750476	0.27224	0.30483
234	H	0.739298	0.283415	0.082168
235	H	0.787958	0.23476	0.082172
236	N	0.77679	0.245928	0.304832
237	C	0.791558	0.064949	0.01029
238	C	0.777742	0.037317	0.052054
239	C	0.749514	0.480853	0.052052
240	C	0.735703	0.453225	0.010285
241	N	0.750475	0.482774	0.30483
242	H	0.7393	0.460426	0.082168
243	H	0.787954	0.057741	0.082173
244	N	0.776785	0.035402	0.304832
245	C	0.957769	0.231154	0.01029
246	C	0.9854	0.24497	0.052055
247	C	0.541864	0.273203	0.052052
248	C	0.569491	0.287016	0.010285
249	N	0.539938	0.27224	0.30483
250	H	0.562289	0.283417	0.082169
251	H	0.964977	0.234757	0.082173
252	N	0.987314	0.245927	0.304832
253	C	0.707663	0.397151	0.341332
254	N	0.653129	0.369587	0.34179
255	C	0.625564	0.315055	0.341332
256	N	0.653126	0.288085	0.341787
257	C	0.707659	0.315051	0.341332
258	N	0.734631	0.369584	0.341787
259	C	0.8196	0.121024	0.341342
260	N	0.87413	0.148583	0.341797
261	C	0.901692	0.203115	0.341342
262	N	0.874132	0.230089	0.341797
263	C	0.819601	0.203119	0.341342
264	N	0.792629	0.148586	0.341797
265	C	0.791561	0.231155	0.343623
266	C	0.777746	0.244971	0.385388
267	C	0.749512	0.273202	0.385385
268	C	0.735699	0.287015	0.343619
269	N	0.750476	0.27224	0.638163
270	H	0.739298	0.283415	0.415502
271	H	0.787958	0.23476	0.415506
272	N	0.77679	0.245928	0.638166
273	C	0.791558	0.064949	0.343623
274	C	0.777742	0.037317	0.385388
275	C	0.749514	0.480853	0.385385
276	C	0.735703	0.453225	0.343619
277	N	0.750475	0.482774	0.638163
278	H	0.7393	0.460426	0.415502
279	H	0.787954	0.057741	0.415506
280	N	0.776785	0.035402	0.638166
281	C	0.957769	0.231154	0.343623
282	C	0.9854	0.24497	0.385388
283	C	0.541864	0.273203	0.385385
284	C	0.569491	0.287016	0.343619
285	N	0.539938	0.27224	0.638163
286	H	0.562289	0.283417	0.415502
287	H	0.964977	0.234757	0.415506
288	N	0.987314	0.245927	0.638166
289	C	0.707663	0.397151	0.674664
290	N	0.653129	0.369587	0.675122
291	C	0.625564	0.315055	0.674664
292	N	0.653126	0.288085	0.675122
293	C	0.707659	0.315051	0.674664
294	N	0.734631	0.369584	0.675122
295	C	0.8196	0.121024	0.674674
296	N	0.87413	0.148583	0.675129
297	C	0.901692	0.203115	0.674674
298	N	0.874132	0.230089	0.675129
299	C	0.819601	0.203119	0.674674
300	N	0.792629	0.148586	0.675129
301	C	0.791561	0.231155	0.676955
302	C	0.777746	0.244971	0.718721
303	C	0.749512	0.273202	0.718717
304	C	0.735699	0.287015	0.676952
305	N	0.750476	0.27224	0.971495
306	H	0.739298	0.283415	0.748835
307	H	0.787958	0.23476	0.748838
308	N	0.77679	0.245928	0.971499
309	C	0.791558	0.064949	0.676955
310	C	0.777742	0.037317	0.718721
311	C	0.749514	0.480853	0.718717
312	C	0.735703	0.453225	0.676952
313	N	0.750475	0.482774	0.971495
314	H	0.7393	0.460426	0.748835
315	H	0.787954	0.057741	0.748838
316	N	0.776785	0.035402	0.971499
317	C	0.957769	0.231154	0.676955
318	C	0.9854	0.24497	0.718721
319	C	0.541864	0.273203	0.718717
320	C	0.569491	0.287016	0.676952
321	N	0.539938	0.27224	0.971495
322	H	0.562289	0.283417	0.748835
323	H	0.964977	0.234757	0.748838
324	N	0.987314	0.245927	0.971499
325	C	0.707664	0.897152	0.007997
326	N	0.653129	0.869584	0.008455
327	C	0.625565	0.815055	0.007997
328	N	0.653128	0.788086	0.008455
329	C	0.707661	0.815051	0.007997
330	N	0.73463	0.869584	0.008455
331	C	0.8196	0.621025	0.008007
332	N	0.874129	0.64858	0.008462
333	C	0.901691	0.703113	0.008007
334	N	0.874135	0.730087	0.008462
335	C	0.8196	0.703117	0.008007
336	N	0.792628	0.648584	0.008462
337	C	0.791564	0.731154	0.010289
338	C	0.777745	0.74497	0.052054
339	C	0.74951	0.773199	0.052052
340	C	0.735699	0.787015	0.010285
341	N	0.750476	0.77224	0.30483
342	H	0.739296	0.783412	0.082168
343	H	0.787958	0.73476	0.082172
344	N	0.77679	0.745928	0.304832
345	C	0.791558	0.564947	0.01029
346	C	0.777745	0.537315	0.052054
347	C	0.749515	0.980853	0.052052
348	C	0.735704	0.953225	0.010285
349	N	0.750477	0.982774	0.30483
350	H	0.7393	0.960422	0.082168
351	H	0.787957	0.557738	0.082173
352	N	0.776788	0.535402	0.304832
353	C	0.957769	0.731154	0.01029
354	C	0.9854	0.74497	0.052055
355	C	0.541863	0.773203	0.052052
356	C	0.569489	0.787015	0.010285
357	N	0.539939	0.77224	0.30483
358	H	0.562291	0.783416	0.082169
359	H	0.964976	0.734756	0.082173
360	N	0.987314	0.745928	0.304832
361	C	0.707664	0.897152	0.341332
362	N	0.653129	0.869584	0.34179
363	C	0.625565	0.815055	0.341332
364	N	0.653128	0.788086	0.341787
365	C	0.707661	0.815051	0.341332
366	N	0.73463	0.869584	0.341787
367	C	0.8196	0.621025	0.341342
368	N	0.874129	0.64858	0.341797
369	C	0.901691	0.703113	0.341342
370	N	0.874135	0.730087	0.341797
371	C	0.8196	0.703117	0.341342
372	N	0.792628	0.648584	0.341797
373	C	0.791564	0.731154	0.343623
374	C	0.777745	0.74497	0.385388
375	C	0.74951	0.773199	0.385385
376	C	0.735699	0.787015	0.343619
377	N	0.750476	0.77224	0.638163
378	H	0.739296	0.783412	0.415502
379	H	0.787958	0.73476	0.415506
380	N	0.77679	0.745928	0.638166
381	C	0.791558	0.564947	0.343623
382	C	0.777745	0.537315	0.385388
383	C	0.749515	0.980853	0.385385
384	C	0.735704	0.953225	0.343619
385	N	0.750477	0.982774	0.638163
386	H	0.7393	0.960422	0.415502
387	H	0.787957	0.557738	0.415506
388	N	0.776788	0.535402	0.638166
389	C	0.957769	0.731154	0.343623
390	C	0.9854	0.74497	0.385388
391	C	0.541863	0.773203	0.385385
392	C	0.569489	0.787015	0.343619
393	N	0.539939	0.77224	0.638163
394	H	0.562291	0.783416	0.415502
395	H	0.964976	0.734756	0.415506
396	N	0.987314	0.745928	0.638166
397	C	0.707664	0.897152	0.674664
398	N	0.653129	0.869584	0.675122
399	C	0.625565	0.815055	0.674664
400	N	0.653128	0.788086	0.675122
401	C	0.707661	0.815051	0.674664
402	N	0.73463	0.869584	0.675122
403	C	0.8196	0.621025	0.674674
404	N	0.874129	0.64858	0.675129
405	C	0.901691	0.703113	0.674674
406	N	0.874135	0.730087	0.675129
407	C	0.8196	0.703117	0.674674
408	N	0.792628	0.648584	0.675129
409	C	0.791564	0.731154	0.676955
410	C	0.777745	0.74497	0.718721
411	C	0.74951	0.773199	0.718717
412	C	0.735699	0.787015	0.676952
413	N	0.750476	0.77224	0.971495
414	H	0.739296	0.783412	0.748835
415	H	0.787958	0.73476	0.748838
416	N	0.77679	0.745928	0.971499
417	C	0.791558	0.564947	0.676955
418	C	0.777745	0.537315	0.718721
419	C	0.749515	0.980853	0.718717
420	C	0.735704	0.953225	0.676952
421	N	0.750477	0.982774	0.971495
422	H	0.7393	0.960422	0.748835
423	H	0.787957	0.557738	0.748838
424	N	0.776788	0.535402	0.971499
425	C	0.957769	0.731154	0.676955
426	C	0.9854	0.74497	0.718721
427	C	0.541863	0.773203	0.718717
428	C	0.569489	0.787015	0.676952
429	N	0.539939	0.77224	0.971495
430	H	0.562291	0.783416	0.748835
431	H	0.964976	0.734756	0.748838
432	N	0.987314	0.745928	0.971499
