data_C360H216O36_2018-02-15_10:39:15
#******************************************
#
# CIF file created by Zeo++
# Zeo++ is an open source package to
# analyze microporous materials
#
#*******************************************

_cell_length_a		29.501   
_cell_length_b		29.501   
_cell_length_c		29.5776   
_cell_angle_alpha		90   
_cell_angle_beta		90   
_cell_angle_gamma		120   

_symmetry_space_group_name_H-M		'P1'
_symmetry_Int_Tables_number		1
_symmetry_cell_setting		Monoclinic

loop_
_symmetry_equiv_pos_as_xyz
'+x,+y,+z'

loop_
_atom_site_label
_atom_site_type_symbol
_atom_site_fract_x
_atom_site_fract_y
_atom_site_fract_z
1	C	0.038458	0.271011	0.299678
2	C	0.066515	0.285032	0.007583
3	C	0.038104	0.270833	0.049058
4	H	0.057975	0.280767	0.269433
5	O	0.059608	0.28157	0.091579
6	H	0.097964	0.300847	0.09095
7	C	0.038458	0.271011	0.633012
8	C	0.066515	0.285032	0.340916
9	C	0.038104	0.270833	0.38239
10	H	0.057975	0.280767	0.602766
11	O	0.059608	0.28157	0.424912
12	H	0.097964	0.300847	0.424283
13	C	0.038458	0.271011	0.966345
14	C	0.066515	0.285032	0.674249
15	C	0.038104	0.270833	0.715726
16	H	0.057975	0.280767	0.936099
17	O	0.059608	0.28157	0.758248
18	H	0.097964	0.300847	0.757616
19	C	0.038459	0.771009	0.299678
20	C	0.066515	0.785033	0.007583
21	C	0.038103	0.770833	0.049058
22	H	0.057976	0.780767	0.269432
23	O	0.059608	0.781573	0.091579
24	H	0.097964	0.800838	0.090949
25	C	0.038459	0.771009	0.633012
26	C	0.066515	0.785033	0.340916
27	C	0.038103	0.770833	0.38239
28	H	0.057976	0.780767	0.602766
29	O	0.059608	0.781573	0.424912
30	H	0.097964	0.800838	0.424283
31	C	0.038459	0.771009	0.966345
32	C	0.066515	0.785033	0.674249
33	C	0.038103	0.770833	0.715726
34	H	0.057976	0.780767	0.936099
35	O	0.059608	0.781573	0.758248
36	H	0.097964	0.800838	0.757616
37	C	0.121748	0.312652	0.006101
38	C	0.149822	0.368017	0.006253
39	C	0.14983	0.285368	0.006267
40	H	0.129774	0.245249	0.006842
41	H	0.129758	0.388073	0.006811
42	C	0.121748	0.312652	0.339432
43	C	0.149822	0.368017	0.339584
44	C	0.14983	0.285368	0.339598
45	H	0.129774	0.245249	0.340173
46	H	0.129758	0.388073	0.340142
47	C	0.121748	0.312652	0.672765
48	C	0.149822	0.368017	0.672917
49	C	0.14983	0.285368	0.672931
50	H	0.129774	0.245249	0.673505
51	H	0.129758	0.388073	0.673475
52	C	0.121748	0.812651	0.006101
53	C	0.149821	0.868016	0.006253
54	C	0.149831	0.78537	0.006264
55	H	0.129775	0.74525	0.006842
56	H	0.129758	0.888072	0.006811
57	C	0.121748	0.812651	0.339432
58	C	0.149821	0.868016	0.339584
59	C	0.149831	0.78537	0.339598
60	H	0.129775	0.74525	0.340173
61	H	0.129758	0.888072	0.340142
62	C	0.121748	0.812651	0.672765
63	C	0.149821	0.868016	0.672917
64	C	0.149831	0.78537	0.672931
65	H	0.129775	0.74525	0.673505
66	H	0.129758	0.888072	0.673475
67	C	0.205187	0.3961	0.006091
68	C	0.205196	0.312661	0.006108
69	H	0.217363	0.301038	0.090955
70	H	0.216478	0.419886	0.090944
71	C	0.205187	0.3961	0.339425
72	C	0.205196	0.312661	0.339439
73	H	0.217363	0.301038	0.424287
74	H	0.216478	0.419886	0.424277
75	C	0.205187	0.3961	0.672758
76	C	0.205196	0.312661	0.672775
77	H	0.217363	0.301038	0.757623
78	H	0.216478	0.419886	0.757613
79	C	0.205188	0.8961	0.006091
80	C	0.205197	0.812663	0.006108
81	H	0.217354	0.80103	0.090955
82	H	0.216479	0.919886	0.090944
83	C	0.205188	0.8961	0.339425
84	C	0.205197	0.812663	0.339439
85	H	0.217354	0.80103	0.424287
86	H	0.216479	0.919886	0.424277
87	C	0.205188	0.8961	0.672758
88	C	0.205197	0.812663	0.672775
89	H	0.217354	0.80103	0.757623
90	H	0.216479	0.919886	0.757613
91	C	0.23248	0.368028	0.006274
92	H	0.272599	0.388091	0.006838
93	C	0.39966	0.201619	0.006527
94	C	0.371604	0.146257	0.006608
95	C	0.316243	0.118187	0.006534
96	C	0.288938	0.146244	0.006591
97	C	0.316228	0.201606	0.006524
98	C	0.37159	0.22891	0.006591
99	H	0.248811	0.126176	0.006696
100	H	0.391649	0.269037	0.006696
101	H	0.391672	0.126198	0.006717
102	C	0.288621	0.229204	0.340145
103	C	0.274398	0.243461	0.29927
104	C	0.246849	0.271028	0.299681
105	C	0.232817	0.285049	0.007587
106	C	0.247011	0.27083	0.04906
107	H	0.237097	0.280795	0.269436
108	H	0.283992	0.233875	0.268877
109	C	0.274651	0.24316	0.048026
110	H	0.284742	0.233039	0.077947
111	O	0.236209	0.281529	0.091582
112	C	0.288644	0.062983	0.340152
113	C	0.274363	0.034509	0.299271
114	C	0.246793	0.479392	0.299675
115	C	0.232796	0.451336	0.007578
116	C	0.247029	0.479741	0.049054
117	H	0.237017	0.45988	0.269428
118	H	0.283937	0.053693	0.26888
119	C	0.27471	0.035051	0.048027
120	H	0.284854	0.055259	0.07795
121	O	0.236404	0.458232	0.091574
122	C	0.454866	0.229227	0.340149
123	C	0.483342	0.243461	0.299271
124	H	0.464161	0.233872	0.268879
125	C	0.482793	0.243183	0.048026
126	H	0.462584	0.233076	0.077949
127	C	0.23248	0.368028	0.339608
128	H	0.272599	0.388091	0.340173
129	C	0.39966	0.201619	0.339861
130	C	0.371604	0.146257	0.339939
131	C	0.316243	0.118187	0.339865
132	C	0.288938	0.146244	0.339926
133	C	0.316228	0.201606	0.339855
134	C	0.37159	0.22891	0.339926
135	H	0.248811	0.126176	0.340031
136	H	0.391649	0.269037	0.340031
137	H	0.391672	0.126198	0.340051
138	C	0.288621	0.229204	0.673482
139	C	0.274398	0.243461	0.632603
140	C	0.246849	0.271028	0.633015
141	C	0.232817	0.285049	0.34092
142	C	0.247011	0.27083	0.382394
143	H	0.237097	0.280795	0.60277
144	H	0.283992	0.233875	0.602212
145	C	0.274651	0.24316	0.381359
146	H	0.284742	0.233039	0.41128
147	O	0.236209	0.281529	0.424916
148	C	0.288644	0.062983	0.673485
149	C	0.274363	0.034509	0.632603
150	C	0.246793	0.479392	0.633009
151	C	0.232796	0.451336	0.340913
152	C	0.247029	0.479741	0.382387
153	H	0.237017	0.45988	0.602763
154	H	0.283937	0.053693	0.602215
155	C	0.27471	0.035051	0.381359
156	H	0.284854	0.055259	0.411284
157	O	0.236404	0.458232	0.424909
158	C	0.454866	0.229227	0.673482
159	C	0.483342	0.243461	0.632603
160	H	0.464161	0.233872	0.602212
161	C	0.482793	0.243183	0.381359
162	H	0.462584	0.233076	0.411284
163	C	0.23248	0.368028	0.672941
164	H	0.272599	0.388091	0.673505
165	C	0.39966	0.201619	0.673194
166	C	0.371604	0.146257	0.673272
167	C	0.316243	0.118187	0.673198
168	C	0.288938	0.146244	0.673259
169	C	0.316228	0.201606	0.673188
170	C	0.37159	0.22891	0.673259
171	H	0.248811	0.126176	0.673363
172	H	0.391649	0.269037	0.673363
173	H	0.391672	0.126198	0.673384
174	C	0.288621	0.229204	0.006815
175	C	0.274398	0.243461	0.965939
176	C	0.246849	0.271028	0.966348
177	C	0.232817	0.285049	0.674253
178	C	0.247011	0.27083	0.715726
179	H	0.237097	0.280795	0.936102
180	H	0.283992	0.233875	0.935545
181	C	0.274651	0.24316	0.714692
182	H	0.284742	0.233039	0.744613
183	O	0.236209	0.281529	0.758248
184	C	0.288644	0.062983	0.006818
185	C	0.274363	0.034509	0.965939
186	C	0.246793	0.479392	0.966341
187	C	0.232796	0.451336	0.674246
188	C	0.247029	0.479741	0.715723
189	H	0.237017	0.45988	0.936096
190	H	0.283937	0.053693	0.935548
191	C	0.27471	0.035051	0.714695
192	H	0.284854	0.055259	0.744617
193	O	0.236404	0.458232	0.758242
194	C	0.454866	0.229227	0.006818
195	C	0.483342	0.243461	0.965939
196	H	0.464161	0.233872	0.935548
197	C	0.482793	0.243183	0.714695
198	H	0.462584	0.233076	0.744617
199	C	0.23248	0.868028	0.006274
200	H	0.272599	0.888092	0.006838
201	C	0.399661	0.70162	0.006527
202	C	0.371605	0.646258	0.006608
203	C	0.316242	0.618186	0.006534
204	C	0.288937	0.646243	0.006591
205	C	0.316228	0.701604	0.006524
206	C	0.37159	0.728909	0.006591
207	H	0.248811	0.626175	0.006696
208	H	0.391649	0.769036	0.006696
209	H	0.391672	0.626199	0.006717
210	C	0.28862	0.729202	0.340149
211	C	0.274398	0.743461	0.29927
212	C	0.24685	0.771028	0.299681
213	C	0.232817	0.785049	0.007587
214	C	0.247011	0.770829	0.04906
215	H	0.237097	0.780794	0.269436
216	H	0.283992	0.733876	0.268877
217	C	0.274651	0.74316	0.048026
218	H	0.284743	0.733038	0.077947
219	O	0.236211	0.78153	0.091582
220	C	0.288643	0.562982	0.340152
221	C	0.274364	0.534511	0.29927
222	C	0.246793	0.979392	0.299675
223	C	0.232796	0.951336	0.007578
224	C	0.24703	0.97974	0.049054
225	H	0.237018	0.95988	0.269428
226	H	0.283937	0.553694	0.26888
227	C	0.27471	0.535051	0.048026
228	H	0.284854	0.555259	0.07795
229	O	0.236404	0.958232	0.091574
230	C	0.454865	0.729226	0.340149
231	C	0.483343	0.743461	0.299271
232	H	0.464161	0.733872	0.268879
233	C	0.482795	0.743183	0.048026
234	H	0.462584	0.733077	0.077949
235	C	0.23248	0.868028	0.339608
236	H	0.272599	0.888092	0.340173
237	C	0.399661	0.70162	0.339861
238	C	0.371605	0.646258	0.339939
239	C	0.316242	0.618186	0.339865
240	C	0.288937	0.646243	0.339926
241	C	0.316228	0.701604	0.339855
242	C	0.37159	0.728909	0.339926
243	H	0.248811	0.626175	0.340031
244	H	0.391649	0.769036	0.340031
245	H	0.391672	0.626199	0.340047
246	C	0.28862	0.729202	0.673482
247	C	0.274398	0.743461	0.632603
248	C	0.24685	0.771028	0.633015
249	C	0.232817	0.785049	0.34092
250	C	0.247011	0.770829	0.382394
251	H	0.237097	0.780794	0.60277
252	H	0.283992	0.733876	0.602212
253	C	0.274651	0.74316	0.381359
254	H	0.284743	0.733038	0.41128
255	O	0.236211	0.78153	0.424916
256	C	0.288643	0.562982	0.673485
257	C	0.274364	0.534511	0.632603
258	C	0.246793	0.979392	0.633009
259	C	0.232796	0.951336	0.340913
260	C	0.24703	0.97974	0.382387
261	H	0.237018	0.95988	0.602763
262	H	0.283937	0.553694	0.602215
263	C	0.27471	0.535051	0.381359
264	H	0.284854	0.555259	0.411284
265	O	0.236404	0.958232	0.424909
266	C	0.454865	0.729226	0.673482
267	C	0.483343	0.743461	0.632603
268	H	0.464161	0.733872	0.602212
269	C	0.482795	0.743183	0.381359
270	H	0.462584	0.733077	0.411284
271	C	0.23248	0.868028	0.672941
272	H	0.272599	0.888092	0.673505
273	C	0.399661	0.70162	0.673194
274	C	0.371605	0.646258	0.673272
275	C	0.316242	0.618186	0.673198
276	C	0.288937	0.646243	0.673259
277	C	0.316228	0.701604	0.673188
278	C	0.37159	0.728909	0.673259
279	H	0.248811	0.626175	0.673363
280	H	0.391649	0.769036	0.673363
281	H	0.391672	0.626199	0.673384
282	C	0.28862	0.729202	0.006815
283	C	0.274398	0.743461	0.965939
284	C	0.24685	0.771028	0.966348
285	C	0.232817	0.785049	0.674253
286	C	0.247011	0.770829	0.715726
287	H	0.237097	0.780794	0.936102
288	H	0.283992	0.733876	0.935545
289	C	0.274651	0.74316	0.714692
290	H	0.284743	0.733038	0.744613
291	O	0.236211	0.78153	0.758248
292	C	0.288643	0.562982	0.006818
293	C	0.274364	0.534511	0.965939
294	C	0.246793	0.979392	0.966341
295	C	0.232796	0.951336	0.674246
296	C	0.24703	0.97974	0.715723
297	H	0.237018	0.95988	0.936096
298	H	0.283937	0.553694	0.935548
299	C	0.27471	0.535051	0.714695
300	H	0.284854	0.555259	0.744617
301	O	0.236404	0.958232	0.758242
302	C	0.454865	0.729226	0.006818
303	C	0.483343	0.743461	0.965939
304	H	0.464161	0.733872	0.935548
305	C	0.482795	0.743183	0.714695
306	H	0.462584	0.733077	0.744617
307	C	0.621747	0.312652	0.006101
308	C	0.64982	0.368017	0.006253
309	C	0.705185	0.3961	0.006091
310	C	0.73248	0.368028	0.006274
311	C	0.705197	0.312661	0.006108
312	C	0.64983	0.285368	0.006267
313	H	0.772599	0.388091	0.006838
314	H	0.629774	0.245249	0.006842
315	H	0.629757	0.388073	0.006811
316	C	0.89966	0.201619	0.006527
317	C	0.871603	0.146257	0.006608
318	C	0.816241	0.118187	0.006534
319	C	0.788938	0.146244	0.006591
320	C	0.816229	0.201606	0.006524
321	C	0.871588	0.22891	0.006591
322	H	0.748811	0.126176	0.006696
323	H	0.891649	0.269037	0.006696
324	H	0.891671	0.126198	0.006717
325	C	0.78862	0.229204	0.340145
326	C	0.774396	0.243461	0.29927
327	C	0.746849	0.271028	0.299681
328	C	0.732816	0.285049	0.007587
329	C	0.747011	0.27083	0.04906
330	H	0.737096	0.280795	0.269436
331	H	0.783993	0.233875	0.268877
332	C	0.77465	0.24316	0.048026
333	H	0.784741	0.233039	0.077947
334	O	0.736209	0.281529	0.091582
335	H	0.717361	0.301038	0.090955
336	C	0.788642	0.062983	0.340152
337	C	0.774361	0.034509	0.299271
338	C	0.746794	0.479392	0.299675
339	C	0.732796	0.451336	0.007578
340	C	0.747029	0.479741	0.049054
341	H	0.737018	0.45988	0.269428
342	H	0.783936	0.053693	0.26888
343	C	0.77471	0.035051	0.048027
344	H	0.784855	0.055259	0.07795
345	O	0.736404	0.458232	0.091574
346	H	0.716478	0.419886	0.090944
347	C	0.954866	0.229227	0.340149
348	C	0.983342	0.243461	0.299271
349	C	0.538458	0.271011	0.299678
350	C	0.566515	0.285032	0.007583
351	C	0.538104	0.270833	0.049058
352	H	0.557976	0.280767	0.269433
353	H	0.964161	0.233872	0.268879
354	C	0.982793	0.243183	0.048026
355	H	0.962584	0.233076	0.077949
356	O	0.559608	0.28157	0.091579
357	H	0.597964	0.300847	0.09095
358	C	0.621747	0.312652	0.339432
359	C	0.64982	0.368017	0.339584
360	C	0.705185	0.3961	0.339425
361	C	0.73248	0.368028	0.339608
362	C	0.705197	0.312661	0.339439
363	C	0.64983	0.285368	0.339598
364	H	0.772599	0.388091	0.340173
365	H	0.629774	0.245249	0.340173
366	H	0.629757	0.388073	0.340142
367	C	0.89966	0.201619	0.339861
368	C	0.871603	0.146257	0.339939
369	C	0.816241	0.118187	0.339865
370	C	0.788938	0.146244	0.339926
371	C	0.816229	0.201606	0.339855
372	C	0.871588	0.22891	0.339926
373	H	0.748811	0.126176	0.340031
374	H	0.891649	0.269037	0.340031
375	H	0.891671	0.126198	0.340051
376	C	0.78862	0.229204	0.673482
377	C	0.774396	0.243461	0.632603
378	C	0.746849	0.271028	0.633015
379	C	0.732816	0.285049	0.34092
380	C	0.747011	0.27083	0.382394
381	H	0.737096	0.280795	0.60277
382	H	0.783993	0.233875	0.602212
383	C	0.77465	0.24316	0.381359
384	H	0.784741	0.233039	0.41128
385	O	0.736209	0.281529	0.424916
386	H	0.717361	0.301038	0.424287
387	C	0.788642	0.062983	0.673485
388	C	0.774361	0.034509	0.632603
389	C	0.746794	0.479392	0.633009
390	C	0.732796	0.451336	0.340913
391	C	0.747029	0.479741	0.382387
392	H	0.737018	0.45988	0.602763
393	H	0.783936	0.053693	0.602215
394	C	0.77471	0.035051	0.381359
395	H	0.784855	0.055259	0.411284
396	O	0.736404	0.458232	0.424909
397	H	0.716478	0.419886	0.424277
398	C	0.954866	0.229227	0.673482
399	C	0.983342	0.243461	0.632603
400	C	0.538458	0.271011	0.633012
401	C	0.566515	0.285032	0.340916
402	C	0.538104	0.270833	0.38239
403	H	0.557976	0.280767	0.602766
404	H	0.964161	0.233872	0.602212
405	C	0.982793	0.243183	0.381359
406	H	0.962584	0.233076	0.411284
407	O	0.559608	0.28157	0.424912
408	H	0.597964	0.300847	0.424283
409	C	0.621747	0.312652	0.672765
410	C	0.64982	0.368017	0.672917
411	C	0.705185	0.3961	0.672758
412	C	0.73248	0.368028	0.672941
413	C	0.705197	0.312661	0.672775
414	C	0.64983	0.285368	0.672931
415	H	0.772599	0.388091	0.673505
416	H	0.629774	0.245249	0.673505
417	H	0.629757	0.388073	0.673475
418	C	0.89966	0.201619	0.673194
419	C	0.871603	0.146257	0.673272
420	C	0.816241	0.118187	0.673198
421	C	0.788938	0.146244	0.673259
422	C	0.816229	0.201606	0.673188
423	C	0.871588	0.22891	0.673259
424	H	0.748811	0.126176	0.673363
425	H	0.891649	0.269037	0.673363
426	H	0.891671	0.126198	0.673384
427	C	0.78862	0.229204	0.006815
428	C	0.774396	0.243461	0.965939
429	C	0.746849	0.271028	0.966348
430	C	0.732816	0.285049	0.674253
431	C	0.747011	0.27083	0.715726
432	H	0.737096	0.280795	0.936102
433	H	0.783993	0.233875	0.935545
434	C	0.77465	0.24316	0.714692
435	H	0.784741	0.233039	0.744613
436	O	0.736209	0.281529	0.758248
437	H	0.717361	0.301038	0.757623
438	C	0.788642	0.062983	0.006818
439	C	0.774361	0.034509	0.965939
440	C	0.746794	0.479392	0.966341
441	C	0.732796	0.451336	0.674246
442	C	0.747029	0.479741	0.715723
443	H	0.737018	0.45988	0.936096
444	H	0.783936	0.053693	0.935548
445	C	0.77471	0.035051	0.714695
446	H	0.784855	0.055259	0.744617
447	O	0.736404	0.458232	0.758242
448	H	0.716478	0.419886	0.757613
449	C	0.954866	0.229227	0.006818
450	C	0.983342	0.243461	0.965939
451	C	0.538458	0.271011	0.966345
452	C	0.566515	0.285032	0.674249
453	C	0.538104	0.270833	0.715726
454	H	0.557976	0.280767	0.936099
455	H	0.964161	0.233872	0.935548
456	C	0.982793	0.243183	0.714695
457	H	0.962584	0.233076	0.744617
458	O	0.559608	0.28157	0.758248
459	H	0.597964	0.300847	0.757616
460	C	0.621747	0.812651	0.006101
461	C	0.649821	0.868016	0.006253
462	C	0.705187	0.8961	0.006091
463	C	0.732479	0.868028	0.006274
464	C	0.705197	0.812663	0.006108
465	C	0.649831	0.78537	0.006264
466	H	0.772599	0.888092	0.006838
467	H	0.629774	0.74525	0.006842
468	H	0.629757	0.888072	0.006811
469	C	0.899659	0.70162	0.006527
470	C	0.871606	0.646258	0.006608
471	C	0.816242	0.618186	0.006534
472	C	0.788936	0.646243	0.006591
473	C	0.816227	0.701604	0.006524
474	C	0.87159	0.728909	0.006591
475	H	0.748812	0.626175	0.006696
476	H	0.891647	0.769036	0.006696
477	H	0.891673	0.626199	0.006717
478	C	0.788621	0.729202	0.340149
479	C	0.774398	0.743461	0.29927
480	C	0.746848	0.771028	0.299681
481	C	0.732818	0.785049	0.007587
482	C	0.747009	0.770829	0.04906
483	H	0.737097	0.780794	0.269436
484	H	0.783992	0.733876	0.268877
485	C	0.774651	0.74316	0.048026
486	H	0.784742	0.733038	0.077947
487	O	0.736211	0.78153	0.091582
488	H	0.717354	0.80103	0.090955
489	C	0.788643	0.562982	0.340152
490	C	0.774364	0.534511	0.29927
491	C	0.746793	0.979392	0.299675
492	C	0.732796	0.951336	0.007578
493	C	0.747029	0.97974	0.049054
494	H	0.737017	0.95988	0.269428
495	H	0.783938	0.553694	0.26888
496	C	0.774708	0.535051	0.048026
497	H	0.784853	0.555259	0.07795
498	O	0.736404	0.958232	0.091574
499	H	0.716478	0.919886	0.090944
500	C	0.954864	0.729226	0.340149
501	C	0.983344	0.743461	0.299271
502	C	0.538457	0.771009	0.299678
503	C	0.566515	0.785033	0.007583
504	C	0.538104	0.770833	0.049058
505	H	0.557975	0.780767	0.269432
506	H	0.96416	0.733872	0.268879
507	C	0.982795	0.743183	0.048026
508	H	0.962583	0.733077	0.077949
509	O	0.559608	0.781573	0.091579
510	H	0.597963	0.800838	0.090949
511	C	0.621747	0.812651	0.339432
512	C	0.649821	0.868016	0.339584
513	C	0.705187	0.8961	0.339425
514	C	0.732479	0.868028	0.339608
515	C	0.705197	0.812663	0.339439
516	C	0.649831	0.78537	0.339598
517	H	0.772599	0.888092	0.340173
518	H	0.629774	0.74525	0.340173
519	H	0.629757	0.888072	0.340142
520	C	0.899659	0.70162	0.339861
521	C	0.871606	0.646258	0.339939
522	C	0.816242	0.618186	0.339865
523	C	0.788936	0.646243	0.339926
524	C	0.816227	0.701604	0.339855
525	C	0.87159	0.728909	0.339926
526	H	0.748812	0.626175	0.340031
527	H	0.891647	0.769036	0.340031
528	H	0.891673	0.626199	0.340047
529	C	0.788621	0.729202	0.673482
530	C	0.774398	0.743461	0.632603
531	C	0.746848	0.771028	0.633015
532	C	0.732818	0.785049	0.34092
533	C	0.747009	0.770829	0.382394
534	H	0.737097	0.780794	0.60277
535	H	0.783992	0.733876	0.602212
536	C	0.774651	0.74316	0.381359
537	H	0.784742	0.733038	0.41128
538	O	0.736211	0.78153	0.424916
539	H	0.717354	0.80103	0.424287
540	C	0.788643	0.562982	0.673485
541	C	0.774364	0.534511	0.632603
542	C	0.746793	0.979392	0.633009
543	C	0.732796	0.951336	0.340913
544	C	0.747029	0.97974	0.382387
545	H	0.737017	0.95988	0.602763
546	H	0.783938	0.553694	0.602215
547	C	0.774708	0.535051	0.381359
548	H	0.784853	0.555259	0.411284
549	O	0.736404	0.958232	0.424909
550	H	0.716478	0.919886	0.424277
551	C	0.954864	0.729226	0.673482
552	C	0.983344	0.743461	0.632603
553	C	0.538457	0.771009	0.633012
554	C	0.566515	0.785033	0.340916
555	C	0.538104	0.770833	0.38239
556	H	0.557975	0.780767	0.602766
557	H	0.96416	0.733872	0.602212
558	C	0.982795	0.743183	0.381359
559	H	0.962583	0.733077	0.411284
560	O	0.559608	0.781573	0.424912
561	H	0.597963	0.800838	0.424283
562	C	0.621747	0.812651	0.672765
563	C	0.649821	0.868016	0.672917
564	C	0.705187	0.8961	0.672758
565	C	0.732479	0.868028	0.672941
566	C	0.705197	0.812663	0.672775
567	C	0.649831	0.78537	0.672931
568	H	0.772599	0.888092	0.673505
569	H	0.629774	0.74525	0.673505
570	H	0.629757	0.888072	0.673475
571	C	0.899659	0.70162	0.673194
572	C	0.871606	0.646258	0.673272
573	C	0.816242	0.618186	0.673198
574	C	0.788936	0.646243	0.673259
575	C	0.816227	0.701604	0.673188
576	C	0.87159	0.728909	0.673259
577	H	0.748812	0.626175	0.673363
578	H	0.891647	0.769036	0.673363
579	H	0.891673	0.626199	0.673384
580	C	0.788621	0.729202	0.006815
581	C	0.774398	0.743461	0.965939
582	C	0.746848	0.771028	0.966348
583	C	0.732818	0.785049	0.674253
584	C	0.747009	0.770829	0.715726
585	H	0.737097	0.780794	0.936102
586	H	0.783992	0.733876	0.935545
587	C	0.774651	0.74316	0.714692
588	H	0.784742	0.733038	0.744613
589	O	0.736211	0.78153	0.758248
590	H	0.717354	0.80103	0.757623
591	C	0.788643	0.562982	0.006818
592	C	0.774364	0.534511	0.965939
593	C	0.746793	0.979392	0.966341
594	C	0.732796	0.951336	0.674246
595	C	0.747029	0.97974	0.715723
596	H	0.737017	0.95988	0.936096
597	H	0.783938	0.553694	0.935548
598	C	0.774708	0.535051	0.714695
599	H	0.784853	0.555259	0.744617
600	O	0.736404	0.958232	0.758242
601	H	0.716478	0.919886	0.757613
602	C	0.954864	0.729226	0.006818
603	C	0.983344	0.743461	0.965939
604	C	0.538457	0.771009	0.966345
605	C	0.566515	0.785033	0.674249
606	C	0.538104	0.770833	0.715726
607	H	0.557975	0.780767	0.936099
608	H	0.96416	0.733872	0.935548
609	C	0.982795	0.743183	0.714695
610	H	0.962583	0.733077	0.744617
611	O	0.559608	0.781573	0.758248
612	H	0.597963	0.800838	0.757616
