data_C189H153N33O9_2018-02-15_10:34:14
#******************************************
#
# CIF file created by Zeo++
# Zeo++ is an open source package to
# analyze microporous materials
#
#*******************************************

_cell_length_a		32.5328   
_cell_length_b		32.534   
_cell_length_c		29.8604   
_cell_angle_alpha		90   
_cell_angle_beta		90   
_cell_angle_gamma		119.999   

_symmetry_space_group_name_H-M		'P1'
_symmetry_Int_Tables_number		1
_symmetry_cell_setting		Monoclinic

loop_
_symmetry_equiv_pos_as_xyz
'+x,+y,+z'

loop_
_atom_site_label
_atom_site_type_symbol
_atom_site_fract_x
_atom_site_fract_y
_atom_site_fract_z
1	C	0.019939	0.532001	0.043315
2	C	0.031559	0.498891	0.308709
3	O	0.031178	0.558446	0.081468
4	C	0.019939	0.532001	0.37665
5	C	0.031559	0.498891	0.642041
6	O	0.031178	0.558446	0.4148
7	C	0.019939	0.532001	0.709981
8	C	0.031559	0.498891	0.975376
9	O	0.031178	0.558446	0.748135
10	C	0.051838	0.529516	0.012734
11	H	0.0525	0.494777	0.285783
12	C	0.051838	0.529516	0.346067
13	H	0.0525	0.494777	0.619115
14	C	0.051838	0.529516	0.679402
15	H	0.0525	0.494777	0.952449
16	N	0.336968	0.668825	0.006884
17	C	0.36271	0.644318	0.002171
18	C	0.286621	0.643005	0.003234
19	C	0.361402	0.719106	0.002414
20	C	0.38911	0.741385	0.964097
21	C	0.411318	0.790878	0.958775
22	C	0.405779	0.819626	0.991103
23	C	0.377485	0.796986	0.029132
24	C	0.356239	0.747532	0.035111
25	C	0.356821	0.616393	0.963906
26	C	0.384121	0.594243	0.958236
27	C	0.418794	0.599992	0.990195
28	C	0.424845	0.628425	0.028213
29	C	0.396699	0.649695	0.034502
30	C	0.258765	0.609582	0.036283
31	C	0.209186	0.581473	0.031129
32	C	0.185904	0.587049	0.993581
33	C	0.21409	0.621185	0.960912
34	C	0.263677	0.64841	0.965433
35	H	0.379478	0.574914	0.929764
36	H	0.333091	0.612674	0.939553
37	H	0.402264	0.670596	0.062003
38	H	0.45053	0.634561	0.051273
39	H	0.392658	0.721534	0.939466
40	H	0.430498	0.805717	0.930266
41	H	0.274755	0.604372	0.063467
42	H	0.190182	0.556153	0.054664
43	H	0.19874	0.625515	0.932764
44	H	0.283107	0.671764	0.940608
45	H	0.335495	0.732033	0.062666
46	H	0.371449	0.816368	0.052459
47	N	0.449806	0.581416	0.982714
48	H	0.444073	0.566928	0.951197
49	N	0.42448	0.869301	0.983922
50	H	0.439564	0.878298	0.95266
51	N	0.136122	0.556057	0.987144
52	H	0.126644	0.56181	0.955966
53	N	0.669917	0.335499	0.013016
54	C	0.648987	0.364685	0.012815
55	C	0.720008	0.356455	0.014595
56	C	0.640736	0.285386	0.013221
57	C	0.639375	0.258604	0.050977
58	C	0.609921	0.20891	0.051355
59	C	0.581109	0.185037	0.014127
60	C	0.582308	0.211926	0.976408
61	C	0.612105	0.261555	0.975842
62	C	0.655455	0.394509	0.975962
63	C	0.635772	0.424439	0.976263
64	C	0.608562	0.424574	0.013156
65	C	0.601909	0.394534	0.049827
66	C	0.622003	0.364952	0.049735
67	C	0.745802	0.382616	0.052479
68	C	0.795499	0.403087	0.054105
69	C	0.820365	0.397618	0.018038
70	C	0.794441	0.371081	0.980255
71	C	0.744823	0.351058	0.978407
72	H	0.641683	0.446455	0.949619
73	H	0.675126	0.39501	0.94902
74	H	0.617213	0.343834	0.076878
75	H	0.582784	0.394467	0.07705
76	H	0.659643	0.275279	0.078486
77	H	0.609213	0.19019	0.079154
78	H	0.728407	0.386673	0.07914
79	H	0.813502	0.421714	0.081948
80	H	0.811602	0.366009	0.954007
81	H	0.726736	0.332029	0.950765
82	H	0.612417	0.280377	0.948273
83	H	0.561175	0.195475	0.949318
84	N	0.589158	0.455012	0.015597
85	H	0.616372	0.48957	0.013651
86	N	0.550799	0.135176	0.016746
87	H	0.516279	0.127631	0.013388
88	N	0.870223	0.417618	0.021784
89	H	0.878103	0.390793	0.01945
90	C	0.476517	0.523351	0.006735
91	C	0.473972	0.488385	0.036572
92	C	0.499308	0.464943	0.028768
93	C	0.528739	0.474561	0.324296
94	C	0.532813	0.510606	0.294975
95	C	0.507586	0.534798	0.302906
96	H	0.511656	0.560252	0.280482
97	H	0.553807	0.519163	0.267109
98	N	0.488699	0.433664	0.061727
99	O	0.447082	0.472087	0.074382
100	C	0.458308	0.438817	0.088293
101	H	0.443948	0.418782	0.116374
102	C	0.445942	0.544828	0.015213
103	H	0.455005	0.560909	0.048502
104	H	0.408984	0.515959	0.016083
105	C	0.552409	0.446434	0.314868
106	H	0.568569	0.454852	0.281548
107	H	0.525158	0.408844	0.314713
108	C	0.482292	0.953991	0.008604
109	C	0.51615	0.986196	0.039369
110	C	0.540003	0.035024	0.031777
111	C	0.532061	0.055085	0.326517
112	C	0.497097	0.02334	0.296227
113	C	0.472409	0.973895	0.303983
114	H	0.447782	0.95271	0.28085
115	H	0.489722	0.035966	0.267785
116	N	0.570048	0.055436	0.065678
117	O	0.53094	0.975332	0.078001
118	C	0.563614	0.019723	0.092683
119	H	0.582857	0.025154	0.12128
120	C	0.460427	0.901875	0.016981
121	H	0.443565	0.894784	0.049909
122	H	0.489175	0.893652	0.018681
123	C	0.560778	0.106893	0.317308
124	H	0.553975	0.114681	0.283353
125	H	0.598307	0.117125	0.318934
126	C	0.97106	0.507121	0.035993
127	C	0.950642	0.478323	0.331247
128	C	0.982073	0.474195	0.301242
129	H	0.969192	0.453596	0.273177
130	N	0.950984	0.517609	0.069588
131	C	0.986951	0.547394	0.096094
132	H	0.981783	0.561654	0.124514
133	C	0.104058	0.559791	0.02057
134	H	0.111555	0.550322	0.053464
135	H	0.112362	0.596795	0.022035
136	C	0.898837	0.455438	0.322065
137	H	0.891008	0.440499	0.288243
138	H	0.888848	0.482926	0.323223
139	N	0.336968	0.668825	0.340217
140	C	0.36271	0.644318	0.335505
141	C	0.286621	0.643005	0.336566
142	C	0.361402	0.719106	0.335746
143	C	0.38911	0.741385	0.297432
144	C	0.411318	0.790878	0.292109
145	C	0.405779	0.819626	0.324436
146	C	0.377485	0.796986	0.362467
147	C	0.356239	0.747532	0.368445
148	C	0.356821	0.616393	0.297239
149	C	0.384121	0.594243	0.291569
150	C	0.418794	0.599992	0.32353
151	C	0.424845	0.628425	0.361546
152	C	0.396699	0.649695	0.367835
153	C	0.258765	0.609582	0.369617
154	C	0.209186	0.581473	0.364463
155	C	0.185904	0.587049	0.326915
156	C	0.21409	0.621185	0.294246
157	C	0.263677	0.64841	0.298768
158	H	0.379478	0.574914	0.263099
159	H	0.333091	0.612674	0.272885
160	H	0.402264	0.670596	0.395337
161	H	0.45053	0.634561	0.384607
162	H	0.392658	0.721534	0.272799
163	H	0.430498	0.805717	0.263599
164	H	0.274755	0.604372	0.3968
165	H	0.190182	0.556153	0.387996
166	H	0.19874	0.625515	0.266099
167	H	0.283107	0.671764	0.273942
168	H	0.335495	0.732033	0.396
169	H	0.371449	0.816368	0.385792
170	N	0.449806	0.581416	0.316048
171	H	0.444073	0.566928	0.28453
172	N	0.42448	0.869301	0.317257
173	H	0.439564	0.878298	0.285994
174	N	0.136122	0.556057	0.320477
175	H	0.126644	0.56181	0.2893
176	N	0.669917	0.335499	0.346349
177	C	0.648987	0.364685	0.346148
178	C	0.720008	0.356455	0.347929
179	C	0.640736	0.285386	0.346553
180	C	0.639375	0.258604	0.384309
181	C	0.609921	0.20891	0.384687
182	C	0.581109	0.185037	0.34746
183	C	0.582308	0.211926	0.309742
184	C	0.612105	0.261555	0.309175
185	C	0.655455	0.394509	0.309295
186	C	0.635772	0.424439	0.309598
187	C	0.608562	0.424574	0.346489
188	C	0.601909	0.394534	0.38316
189	C	0.622003	0.364952	0.383069
190	C	0.745802	0.382616	0.385812
191	C	0.795499	0.403087	0.387436
192	C	0.820365	0.397618	0.351372
193	C	0.794441	0.371081	0.313589
194	C	0.744823	0.351058	0.31174
195	H	0.641683	0.446455	0.282952
196	H	0.675126	0.39501	0.282353
197	H	0.617213	0.343834	0.410212
198	H	0.582784	0.394467	0.410383
199	H	0.659643	0.275279	0.41182
200	H	0.609213	0.19019	0.412486
201	H	0.728407	0.386673	0.412473
202	H	0.813502	0.421714	0.415279
203	H	0.811602	0.366009	0.287341
204	H	0.726736	0.332029	0.284098
205	H	0.612417	0.280377	0.281606
206	H	0.561175	0.195475	0.282653
207	N	0.589158	0.455012	0.348931
208	H	0.616372	0.48957	0.346985
209	N	0.550799	0.135176	0.350079
210	H	0.516279	0.127631	0.34672
211	N	0.870223	0.417618	0.355116
212	H	0.878103	0.390793	0.352782
213	C	0.476517	0.523351	0.340069
214	C	0.473972	0.488385	0.369905
215	C	0.499308	0.464943	0.362102
216	C	0.528739	0.474561	0.657627
217	C	0.532813	0.510606	0.628307
218	C	0.507586	0.534798	0.636238
219	H	0.511656	0.560252	0.613817
220	H	0.553807	0.519163	0.600441
221	N	0.488699	0.433664	0.395059
222	O	0.447082	0.472087	0.407714
223	C	0.458308	0.438817	0.421626
224	H	0.443948	0.418782	0.449706
225	C	0.445942	0.544828	0.348545
226	H	0.455005	0.560909	0.381837
227	H	0.408984	0.515959	0.349416
228	C	0.552409	0.446434	0.6482
229	H	0.568569	0.454852	0.614882
230	H	0.525158	0.408844	0.648046
231	C	0.482292	0.953991	0.341938
232	C	0.51615	0.986196	0.372701
233	C	0.540003	0.035024	0.365109
234	C	0.532061	0.055085	0.659851
235	C	0.497097	0.02334	0.62956
236	C	0.472409	0.973895	0.637316
237	H	0.447782	0.95271	0.614185
238	H	0.489722	0.035966	0.601118
239	N	0.570048	0.055436	0.39901
240	O	0.53094	0.975332	0.411334
241	C	0.563614	0.019723	0.426016
242	H	0.582857	0.025154	0.454612
243	C	0.460427	0.901875	0.350314
244	H	0.443565	0.894784	0.383244
245	H	0.489175	0.893652	0.352015
246	C	0.560778	0.106893	0.650641
247	H	0.553975	0.114681	0.616687
248	H	0.598307	0.117125	0.652266
249	C	0.97106	0.507121	0.369325
250	C	0.950642	0.478323	0.66458
251	C	0.982073	0.474195	0.634573
252	H	0.969192	0.453596	0.606509
253	N	0.950984	0.517609	0.402922
254	C	0.986951	0.547394	0.429429
255	H	0.981783	0.561654	0.457847
256	C	0.104058	0.559791	0.353904
257	H	0.111555	0.550322	0.386797
258	H	0.112362	0.596795	0.355367
259	C	0.898837	0.455438	0.655397
260	H	0.891008	0.440499	0.621576
261	H	0.888848	0.482926	0.656556
262	N	0.336968	0.668825	0.673551
263	C	0.36271	0.644318	0.668836
264	C	0.286621	0.643005	0.669901
265	C	0.361402	0.719106	0.669081
266	C	0.38911	0.741385	0.630766
267	C	0.411318	0.790878	0.625441
268	C	0.405779	0.819626	0.657768
269	C	0.377485	0.796986	0.695798
270	C	0.356239	0.747532	0.701776
271	C	0.356821	0.616393	0.630571
272	C	0.384121	0.594243	0.624902
273	C	0.418794	0.599992	0.656864
274	C	0.424845	0.628425	0.694881
275	C	0.396699	0.649695	0.70117
276	C	0.258765	0.609582	0.702948
277	C	0.209186	0.581473	0.697794
278	C	0.185904	0.587049	0.660249
279	C	0.21409	0.621185	0.627581
280	C	0.263677	0.64841	0.632102
281	H	0.379478	0.574914	0.596432
282	H	0.333091	0.612674	0.606218
283	H	0.402264	0.670596	0.728668
284	H	0.45053	0.634561	0.717938
285	H	0.392658	0.721534	0.606131
286	H	0.430498	0.805717	0.596931
287	H	0.274755	0.604372	0.730135
288	H	0.190182	0.556153	0.72133
289	H	0.19874	0.625515	0.599433
290	H	0.283107	0.671764	0.607276
291	H	0.335495	0.732033	0.729331
292	H	0.371449	0.816368	0.719123
293	N	0.449806	0.581416	0.649382
294	H	0.444073	0.566928	0.617862
295	N	0.42448	0.869301	0.650591
296	H	0.439564	0.878298	0.619326
297	N	0.136122	0.556057	0.653809
298	H	0.126644	0.56181	0.622634
299	N	0.669917	0.335499	0.679683
300	C	0.648987	0.364685	0.679482
301	C	0.720008	0.356455	0.681261
302	C	0.640736	0.285386	0.679888
303	C	0.639375	0.258604	0.717643
304	C	0.609921	0.20891	0.718022
305	C	0.581109	0.185037	0.680792
306	C	0.582308	0.211926	0.643076
307	C	0.612105	0.261555	0.642507
308	C	0.655455	0.394509	0.642627
309	C	0.635772	0.424439	0.642932
310	C	0.608562	0.424574	0.679821
311	C	0.601909	0.394534	0.716495
312	C	0.622003	0.364952	0.716401
313	C	0.745802	0.382616	0.719147
314	C	0.795499	0.403087	0.720771
315	C	0.820365	0.397618	0.684703
316	C	0.794441	0.371081	0.646921
317	C	0.744823	0.351058	0.645072
318	H	0.641683	0.446455	0.616285
319	H	0.675126	0.39501	0.615685
320	H	0.617213	0.343834	0.743544
321	H	0.582784	0.394467	0.743715
322	H	0.659643	0.275279	0.745151
323	H	0.609213	0.19019	0.745821
324	H	0.728407	0.386673	0.745804
325	H	0.813502	0.421714	0.748614
326	H	0.811602	0.366009	0.620675
327	H	0.726736	0.332029	0.61743
328	H	0.612417	0.280377	0.614939
329	H	0.561175	0.195475	0.615987
330	N	0.589158	0.455012	0.682265
331	H	0.616372	0.48957	0.680316
332	N	0.550799	0.135176	0.683414
333	H	0.516279	0.127631	0.680055
334	N	0.870223	0.417618	0.688451
335	H	0.878103	0.390793	0.686116
336	C	0.476517	0.523351	0.673401
337	C	0.473972	0.488385	0.70324
338	C	0.499308	0.464943	0.695433
339	C	0.528739	0.474561	0.990962
340	C	0.532813	0.510606	0.961642
341	C	0.507586	0.534798	0.969572
342	H	0.511656	0.560252	0.947148
343	H	0.553807	0.519163	0.933776
344	N	0.488699	0.433664	0.728393
345	O	0.447082	0.472087	0.741049
346	C	0.458308	0.438817	0.75496
347	H	0.443948	0.418782	0.783041
348	C	0.445942	0.544828	0.68188
349	H	0.455005	0.560909	0.715168
350	H	0.408984	0.515959	0.682751
351	C	0.552409	0.446434	0.981535
352	H	0.568569	0.454852	0.948213
353	H	0.525158	0.408844	0.981381
354	C	0.482292	0.953991	0.675269
355	C	0.51615	0.986196	0.706036
356	C	0.540003	0.035024	0.698444
357	C	0.532061	0.055085	0.993182
358	C	0.497097	0.02334	0.962895
359	C	0.472409	0.973895	0.970647
360	H	0.447782	0.95271	0.947516
361	H	0.489722	0.035966	0.934452
362	N	0.570048	0.055436	0.732345
363	O	0.53094	0.975332	0.744669
364	C	0.563614	0.019723	0.759347
365	H	0.582857	0.025154	0.787947
366	C	0.460427	0.901875	0.683648
367	H	0.443565	0.894784	0.716575
368	H	0.489175	0.893652	0.685346
369	C	0.560778	0.106893	0.983973
370	H	0.553975	0.114681	0.950018
371	H	0.598307	0.117125	0.9856
372	C	0.97106	0.507121	0.70266
373	C	0.950642	0.478323	0.997914
374	C	0.982073	0.474195	0.967908
375	H	0.969192	0.453596	0.939844
376	N	0.950984	0.517609	0.736253
377	C	0.986951	0.547394	0.76276
378	H	0.981783	0.561654	0.791182
379	C	0.104058	0.559791	0.687235
380	H	0.111555	0.550322	0.720131
381	H	0.112362	0.596795	0.688702
382	C	0.898837	0.455438	0.988732
383	H	0.891008	0.440499	0.954907
384	H	0.888848	0.482926	0.98989
