data_C324H108N216_2018-02-15_10:38:15
#******************************************
#
# CIF file created by Zeo++
# Zeo++ is an open source package to
# analyze microporous materials
#
#*******************************************

_cell_length_a		38.6719   
_cell_length_b		38.672   
_cell_length_c		29.4182   
_cell_angle_alpha		90   
_cell_angle_beta		90   
_cell_angle_gamma		120   

_symmetry_space_group_name_H-M		'P1'
_symmetry_Int_Tables_number		1
_symmetry_cell_setting		Monoclinic

loop_
_symmetry_equiv_pos_as_xyz
'+x,+y,+z'

loop_
_atom_site_label
_atom_site_type_symbol
_atom_site_fract_x
_atom_site_fract_y
_atom_site_fract_z
1	C	0.103163	0.445551	0.009832
2	N	0.134052	0.438086	0.009777
3	C	0.172486	0.468939	0.009808
4	N	0.179791	0.507192	0.009892
5	C	0.149174	0.514815	0.00994
6	N	0.111127	0.483938	0.009923
7	C	0.597677	0.681006	0.009804
8	N	0.605189	0.719378	0.009726
9	C	0.574363	0.727001	0.009764
10	N	0.536095	0.696082	0.009876
11	C	0.52843	0.657827	0.009935
12	N	0.559279	0.650616	0.009918
13	C	0.362196	0.940076	0.009781
14	N	0.323836	0.90919	0.009706
15	C	0.316249	0.870753	0.009774
16	N	0.347193	0.863444	0.009899
17	C	0.385435	0.894055	0.009948
18	N	0.392611	0.932104	0.009902
19	C	0.938856	0.598891	0.009781
20	N	0.907975	0.606368	0.009679
21	C	0.869536	0.575518	0.00974
22	N	0.862221	0.537262	0.009886
23	C	0.892833	0.529631	0.009961
24	N	0.930882	0.560502	0.009925
25	C	0.444311	0.363397	0.009838
26	N	0.436831	0.325035	0.009777
27	C	0.467677	0.317442	0.009801
28	N	0.505933	0.348381	0.009886
29	C	0.51357	0.386627	0.009939
30	N	0.482699	0.393809	0.009926
31	C	0.67976	0.104335	0.009798
32	N	0.71813	0.135196	0.00974
33	C	0.725752	0.173645	0.009794
34	N	0.694831	0.18099	0.009908
35	C	0.656578	0.150399	0.009945
36	N	0.649368	0.11234	0.009906
37	C	0.443874	0.104141	0.009804
38	N	0.436414	0.135026	0.009713
39	C	0.467293	0.173434	0.009767
40	N	0.505534	0.180733	0.009883
41	C	0.513156	0.1501	0.009954
42	N	0.482229	0.112051	0.009925
43	C	0.680065	0.599333	0.00976
44	N	0.718397	0.606759	0.009662
45	C	0.725887	0.575855	0.009747
46	N	0.694924	0.537627	0.0099
47	C	0.65668	0.53004	0.009964
48	N	0.649596	0.560991	0.009909
49	C	0.939038	0.363161	0.009791
50	N	0.908148	0.32482	0.009733
51	C	0.869745	0.317304	0.009808
52	N	0.862455	0.34825	0.009923
53	C	0.893098	0.386502	0.00996
54	N	0.93114	0.393611	0.009901
55	C	0.598144	0.940294	0.009798
56	N	0.605595	0.909405	0.009719
57	C	0.574708	0.871001	0.009777
58	N	0.536472	0.863709	0.0099
59	C	0.528862	0.894354	0.009957
60	N	0.559794	0.932397	0.009917
61	C	0.361975	0.445133	0.009794
62	N	0.323632	0.437677	0.009757
63	C	0.316106	0.468557	0.009818
64	N	0.347047	0.506794	0.009903
65	C	0.385302	0.514414	0.009927
66	N	0.392422	0.483487	0.009876
67	C	0.102935	0.681293	0.009767
68	N	0.13384	0.719628	0.009655
69	C	0.172237	0.727126	0.009733
70	N	0.179507	0.696165	0.009892
71	C	0.148852	0.657919	0.00997
72	N	0.110816	0.650831	0.009924
73	C	0.224314	0.462457	0.302279
74	N	0.259618	0.462806	0.303378
75	C	0.277186	0.462272	0.343165
76	N	0.25996	0.463505	0.049594
77	C	0.224646	0.463129	0.050702
78	C	0.205266	0.462576	0.009821
79	H	0.212844	0.463914	0.271496
80	H	0.213479	0.465183	0.081445
81	C	0.580791	0.785276	0.30227
82	N	0.580416	0.820217	0.303361
83	C	0.580994	0.838371	0.343128
84	N	0.579817	0.819927	0.049551
85	C	0.580221	0.785004	0.050677
86	C	0.580775	0.76616	0.009815
87	H	0.579293	0.772326	0.271489
88	H	0.578199	0.771807	0.081428
89	C	0.257907	0.818981	0.302243
90	N	0.222953	0.78367	0.303324
91	C	0.204886	0.766044	0.343104
92	N	0.223368	0.783225	0.049539
93	C	0.258305	0.818542	0.050671
94	C	0.277109	0.837956	0.009798
95	H	0.270813	0.830494	0.271463
96	H	0.271545	0.829673	0.081414
97	C	0.817761	0.58211	0.302229
98	N	0.782444	0.581734	0.303322
99	C	0.764801	0.582122	0.343111
100	N	0.78197	0.580776	0.049535
101	C	0.817295	0.581173	0.050647
102	C	0.836752	0.581878	0.00977
103	H	0.829286	0.580755	0.271441
104	H	0.828417	0.579032	0.081383
105	C	0.461192	0.259136	0.302256
106	N	0.461544	0.224182	0.303341
107	C	0.461005	0.206069	0.343121
108	N	0.462238	0.224521	0.049556
109	C	0.461859	0.259458	0.050677
110	C	0.461306	0.278294	0.009804
111	H	0.462656	0.272073	0.271477
112	H	0.463913	0.272672	0.081425
113	C	0.784058	0.225456	0.302299
114	N	0.818999	0.260775	0.303377
115	C	0.83711	0.278385	0.343145
116	N	0.818647	0.261168	0.049577
117	C	0.783723	0.225841	0.050707
118	C	0.764912	0.206398	0.009849
119	H	0.771132	0.213971	0.271519
120	H	0.770504	0.214695	0.081455
121	C	0.155056	0.606192	0.050958
122	N	0.154679	0.57091	0.049847
123	C	0.155672	0.553685	0.010014
124	N	0.155054	0.57111	0.303509
125	C	0.155487	0.606419	0.302413
126	C	0.15533	0.625331	0.343359
127	H	0.153199	0.617481	0.081704
128	H	0.153822	0.617807	0.271656
129	C	0.437	0.572344	0.050903
130	N	0.472288	0.60724	0.049823
131	C	0.489552	0.625477	0.010014
132	N	0.47215	0.607428	0.303502
133	C	0.436836	0.572562	0.302377
134	C	0.417845	0.5535	0.343295
135	H	0.425696	0.559194	0.081643
136	H	0.425478	0.55951	0.27161
137	C	0.470896	0.888077	0.050947
138	N	0.436002	0.888471	0.049836
139	C	0.4178	0.887558	0.010014
140	N	0.43589	0.888232	0.303522
141	C	0.470756	0.887782	0.302414
142	C	0.489783	0.887835	0.343352
143	H	0.484016	0.889884	0.081696
144	H	0.483829	0.889499	0.271656
145	C	0.886849	0.438206	0.050958
146	N	0.887249	0.473496	0.049859
147	C	0.886322	0.49076	0.010028
148	N	0.886992	0.473364	0.303522
149	C	0.88654	0.438047	0.30242
150	C	0.88659	0.419069	0.343359
151	H	0.888662	0.426889	0.081704
152	H	0.888247	0.426686	0.271662
153	C	0.604953	0.472107	0.050952
154	N	0.569672	0.437205	0.049843
155	C	0.55244	0.418992	0.01001
156	N	0.56986	0.437038	0.303504
157	C	0.60517	0.47191	0.302406
158	C	0.624089	0.490975	0.343352
159	H	0.616249	0.485251	0.081697
160	H	0.616555	0.484968	0.271648
161	C	0.571084	0.15632	0.050929
162	N	0.60598	0.155933	0.049843
163	C	0.624225	0.156924	0.010031
164	N	0.606179	0.156288	0.303522
165	C	0.571308	0.156732	0.302403
166	C	0.552243	0.156645	0.343325
167	H	0.557932	0.154462	0.08167
168	H	0.558262	0.15505	0.271638
169	C	0.040609	0.404447	0.302334
170	N	6.3e-05	0.384839	0.303465
171	C	0.979245	0.3734	0.343091
172	N	6e-06	0.384911	0.049425
173	C	0.040547	0.404447	0.050666
174	C	0.062739	0.415385	0.009855
175	H	0.054604	0.413936	0.27162
176	H	0.054486	0.414116	0.081379
177	C	0.639146	0.65995	0.302295
178	N	0.658771	0.639021	0.30342
179	C	0.669855	0.629326	0.34308
180	N	0.658007	0.638203	0.049423
181	C	0.638429	0.659167	0.050682
182	C	0.627799	0.670675	0.009838
183	H	0.629897	0.664715	0.27156
184	H	0.628505	0.663186	0.081353
185	C	0.383358	0.002664	0.302286
186	N	0.404289	0.043215	0.303443
187	C	0.413886	0.06392	0.343145
188	N	0.404954	0.043191	0.049473
189	C	0.383979	0.002646	0.050655
190	C	0.37249	0.980517	0.009791
191	H	0.378651	0.988678	0.271541
192	H	0.379898	0.988672	0.081317
193	C	0.001411	0.640488	0.302299
194	N	0.041963	0.660105	0.303431
195	C	0.062729	0.671078	0.343104
196	N	0.041987	0.659108	0.04942
197	C	0.001445	0.639532	0.050654
198	C	0.979294	0.629043	0.009815
199	H	0.98741	0.631321	0.271547
200	H	0.987499	0.629523	0.081311
201	C	0.403239	0.384887	0.302329
202	N	0.383626	0.405821	0.303435
203	C	0.372198	0.41514	0.343094
204	N	0.383671	0.405925	0.049464
205	C	0.403214	0.384923	0.050676
206	C	0.414156	0.373672	0.009859
207	H	0.412742	0.380384	0.271622
208	H	0.412872	0.380632	0.081386
209	C	0.658529	0.04178	0.302278
210	N	0.637628	0.001227	0.30343
211	C	0.628135	0.980511	0.343125
212	N	0.637151	0.001224	0.049472
213	C	0.658105	0.041771	0.050677
214	C	0.669429	0.063881	0.009808
215	H	0.663167	0.055777	0.271549
216	H	0.662253	0.055739	0.081353
217	C	0.103163	0.445551	0.343165
218	N	0.134052	0.438086	0.343111
219	C	0.172486	0.468939	0.343142
220	N	0.179791	0.507192	0.343227
221	C	0.149174	0.514815	0.343274
222	N	0.111127	0.483938	0.343257
223	C	0.597677	0.681006	0.343138
224	N	0.605189	0.719378	0.34306
225	C	0.574363	0.727001	0.343097
226	N	0.536095	0.696082	0.34321
227	C	0.52843	0.657827	0.343267
228	N	0.559279	0.650616	0.34325
229	C	0.362196	0.940076	0.343114
230	N	0.323836	0.90919	0.34304
231	C	0.316249	0.870753	0.343108
232	N	0.347193	0.863444	0.343233
233	C	0.385435	0.894055	0.343281
234	N	0.392611	0.932104	0.343233
235	C	0.938856	0.598891	0.343114
236	N	0.907975	0.606368	0.343012
237	C	0.869536	0.575518	0.343077
238	N	0.862221	0.537262	0.34322
239	C	0.892833	0.529631	0.343295
240	N	0.930882	0.560502	0.343257
241	C	0.444311	0.363397	0.343172
242	N	0.436831	0.325035	0.343111
243	C	0.467677	0.317442	0.343135
244	N	0.505933	0.348381	0.34322
245	C	0.51357	0.386627	0.343271
246	N	0.482699	0.393809	0.343261
247	C	0.67976	0.104335	0.343131
248	N	0.71813	0.135196	0.343074
249	C	0.725752	0.173645	0.343128
250	N	0.694831	0.18099	0.34324
251	C	0.656578	0.150399	0.343278
252	N	0.649368	0.11234	0.34324
253	C	0.443874	0.104141	0.343138
254	N	0.436414	0.135026	0.343046
255	C	0.467293	0.173434	0.343101
256	N	0.505534	0.180733	0.343216
257	C	0.513156	0.1501	0.343288
258	N	0.482229	0.112051	0.343257
259	C	0.680065	0.599333	0.343094
260	N	0.718397	0.606759	0.342995
261	C	0.725887	0.575855	0.34308
262	N	0.694924	0.537627	0.343233
263	C	0.65668	0.53004	0.343298
264	N	0.649596	0.560991	0.34324
265	C	0.939038	0.363161	0.343125
266	N	0.908148	0.32482	0.343067
267	C	0.869745	0.317304	0.343142
268	N	0.862455	0.34825	0.343257
269	C	0.893098	0.386502	0.343291
270	N	0.93114	0.393611	0.343233
271	C	0.598144	0.940294	0.343131
272	N	0.605595	0.909405	0.343053
273	C	0.574708	0.871001	0.343111
274	N	0.536472	0.863709	0.343233
275	C	0.528862	0.894354	0.343291
276	N	0.559794	0.932397	0.34325
277	C	0.361975	0.445133	0.343128
278	N	0.323632	0.437677	0.343091
279	C	0.316106	0.468557	0.343152
280	N	0.347047	0.506794	0.343237
281	C	0.385302	0.514414	0.343261
282	N	0.392422	0.483487	0.34321
283	C	0.102935	0.681293	0.343101
284	N	0.13384	0.719628	0.342989
285	C	0.172237	0.727126	0.343067
286	N	0.179507	0.696165	0.343227
287	C	0.148852	0.657919	0.343305
288	N	0.110816	0.650831	0.343257
289	C	0.224314	0.462457	0.635614
290	N	0.259618	0.462806	0.636712
291	C	0.277186	0.462272	0.676497
292	N	0.25996	0.463505	0.382927
293	C	0.224646	0.463129	0.384035
294	C	0.205266	0.462576	0.343155
295	H	0.212844	0.463914	0.60483
296	H	0.213479	0.465183	0.414778
297	C	0.580791	0.785276	0.635604
298	N	0.580416	0.820217	0.636695
299	C	0.580994	0.838371	0.676459
300	N	0.579817	0.819927	0.382886
301	C	0.580221	0.785004	0.384011
302	C	0.580775	0.76616	0.343148
303	H	0.579293	0.772326	0.604823
304	H	0.578199	0.771807	0.414761
305	C	0.257907	0.818981	0.635577
306	N	0.222953	0.78367	0.636658
307	C	0.204886	0.766044	0.676436
308	N	0.223368	0.783225	0.382872
309	C	0.258305	0.818542	0.384004
310	C	0.277109	0.837956	0.343131
311	H	0.270813	0.830494	0.604796
312	H	0.271545	0.829673	0.414747
313	C	0.817761	0.58211	0.635563
314	N	0.782444	0.581734	0.636654
315	C	0.764801	0.582122	0.676442
316	N	0.78197	0.580776	0.382869
317	C	0.817295	0.581173	0.38398
318	C	0.836752	0.581878	0.343104
319	H	0.829286	0.580755	0.604776
320	H	0.828417	0.579032	0.414716
321	C	0.461192	0.259136	0.63559
322	N	0.461544	0.224182	0.636675
323	C	0.461005	0.206069	0.676453
324	N	0.462238	0.224521	0.382889
325	C	0.461859	0.259458	0.384011
326	C	0.461306	0.278294	0.343138
327	H	0.462656	0.272073	0.60481
328	H	0.463913	0.272672	0.414757
329	C	0.784058	0.225456	0.635631
330	N	0.818999	0.260775	0.636709
331	C	0.83711	0.278385	0.676476
332	N	0.818647	0.261168	0.38291
333	C	0.783723	0.225841	0.384042
334	C	0.764912	0.206398	0.343182
335	H	0.771132	0.213971	0.604851
336	H	0.770504	0.214695	0.414788
337	C	0.155056	0.606192	0.384293
338	N	0.154679	0.57091	0.383182
339	C	0.155672	0.553685	0.343346
340	N	0.155054	0.57111	0.636841
341	C	0.155487	0.606419	0.635747
342	C	0.15533	0.625331	0.676694
343	H	0.153199	0.617481	0.415036
344	H	0.153822	0.617807	0.60499
345	C	0.437	0.572344	0.384235
346	N	0.472288	0.60724	0.383154
347	C	0.489552	0.625477	0.343346
348	N	0.47215	0.607428	0.636834
349	C	0.436836	0.572562	0.635709
350	C	0.417845	0.5535	0.676629
351	H	0.425696	0.559194	0.414975
352	H	0.425478	0.55951	0.604942
353	C	0.470896	0.888077	0.384279
354	N	0.436002	0.888471	0.383168
355	C	0.4178	0.887558	0.343346
356	N	0.43589	0.888232	0.636855
357	C	0.470756	0.887782	0.635747
358	C	0.489783	0.887835	0.676687
359	H	0.484016	0.889884	0.415029
360	H	0.483829	0.889499	0.60499
361	C	0.886849	0.438206	0.38429
362	N	0.887249	0.473496	0.383192
363	C	0.886322	0.49076	0.343363
364	N	0.886992	0.473364	0.636855
365	C	0.88654	0.438047	0.635753
366	C	0.88659	0.419069	0.676694
367	H	0.888662	0.426889	0.415036
368	H	0.888247	0.426686	0.604993
369	C	0.604953	0.472107	0.384286
370	N	0.569672	0.437205	0.383175
371	C	0.55244	0.418992	0.343342
372	N	0.56986	0.437038	0.636838
373	C	0.60517	0.47191	0.63574
374	C	0.624089	0.490975	0.676684
375	H	0.616249	0.485251	0.415029
376	H	0.616555	0.484968	0.604983
377	C	0.571084	0.15632	0.384263
378	N	0.60598	0.155933	0.383175
379	C	0.624225	0.156924	0.343363
380	N	0.606179	0.156288	0.636855
381	C	0.571308	0.156732	0.635736
382	C	0.552243	0.156645	0.67666
383	H	0.557932	0.154462	0.415002
384	H	0.558262	0.15505	0.60497
385	C	0.040609	0.404447	0.635668
386	N	6.3e-05	0.384839	0.636797
387	C	0.979245	0.3734	0.676422
388	N	6e-06	0.384911	0.382757
389	C	0.040547	0.404447	0.383997
390	C	0.062739	0.415385	0.343189
391	H	0.054604	0.413936	0.604953
392	H	0.054486	0.414116	0.414713
393	C	0.639146	0.65995	0.635628
394	N	0.658771	0.639021	0.636753
395	C	0.669855	0.629326	0.676415
396	N	0.658007	0.638203	0.382757
397	C	0.638429	0.659167	0.384014
398	C	0.627799	0.670675	0.343176
399	H	0.629897	0.664715	0.604895
400	H	0.628505	0.663186	0.414686
401	C	0.383358	0.002664	0.635621
402	N	0.404289	0.043215	0.636777
403	C	0.413886	0.06392	0.67648
404	N	0.404954	0.043191	0.382808
405	C	0.383979	0.002646	0.383987
406	C	0.37249	0.980517	0.343125
407	H	0.378651	0.988678	0.604874
408	H	0.379898	0.988672	0.414652
409	C	0.001411	0.640488	0.635631
410	N	0.041963	0.660105	0.636763
411	C	0.062729	0.671078	0.676436
412	N	0.041987	0.659108	0.382753
413	C	0.001445	0.639532	0.383987
414	C	0.979294	0.629043	0.343148
415	H	0.98741	0.631321	0.604881
416	H	0.987499	0.629523	0.414645
417	C	0.403239	0.384887	0.635662
418	N	0.383626	0.405821	0.636766
419	C	0.372198	0.41514	0.676425
420	N	0.383671	0.405925	0.382797
421	C	0.403214	0.384923	0.384011
422	C	0.414156	0.373672	0.343193
423	H	0.412742	0.380384	0.604956
424	H	0.412872	0.380632	0.41472
425	C	0.658529	0.04178	0.635611
426	N	0.637628	0.001227	0.636763
427	C	0.628135	0.980511	0.676456
428	N	0.637151	0.001224	0.382804
429	C	0.658105	0.041771	0.384011
430	C	0.669429	0.063881	0.343142
431	H	0.663167	0.055777	0.604881
432	H	0.662253	0.055739	0.414686
433	C	0.103163	0.445551	0.676497
434	N	0.134052	0.438086	0.676442
435	C	0.172486	0.468939	0.676473
436	N	0.179791	0.507192	0.676558
437	C	0.149174	0.514815	0.676606
438	N	0.111127	0.483938	0.676589
439	C	0.597677	0.681006	0.676473
440	N	0.605189	0.719378	0.676395
441	C	0.574363	0.727001	0.676432
442	N	0.536095	0.696082	0.676544
443	C	0.52843	0.657827	0.676602
444	N	0.559279	0.650616	0.676585
445	C	0.362196	0.940076	0.676449
446	N	0.323836	0.90919	0.676374
447	C	0.316249	0.870753	0.676439
448	N	0.347193	0.863444	0.676565
449	C	0.385435	0.894055	0.676612
450	N	0.392611	0.932104	0.676568
451	C	0.938856	0.598891	0.676446
452	N	0.907975	0.606368	0.676344
453	C	0.869536	0.575518	0.676408
454	N	0.862221	0.537262	0.676555
455	C	0.892833	0.529631	0.676626
456	N	0.930882	0.560502	0.676592
457	C	0.444311	0.363397	0.676504
458	N	0.436831	0.325035	0.676442
459	C	0.467677	0.317442	0.67647
460	N	0.505933	0.348381	0.676551
461	C	0.51357	0.386627	0.676606
462	N	0.482699	0.393809	0.676592
463	C	0.67976	0.104335	0.676463
464	N	0.71813	0.135196	0.676408
465	C	0.725752	0.173645	0.676463
466	N	0.694831	0.18099	0.676575
467	C	0.656578	0.150399	0.676612
468	N	0.649368	0.11234	0.676572
469	C	0.443874	0.104141	0.67647
470	N	0.436414	0.135026	0.676381
471	C	0.467293	0.173434	0.676432
472	N	0.505534	0.180733	0.676551
473	C	0.513156	0.1501	0.676619
474	N	0.482229	0.112051	0.676592
475	C	0.680065	0.599333	0.676425
476	N	0.718397	0.606759	0.67633
477	C	0.725887	0.575855	0.676412
478	N	0.694924	0.537627	0.676565
479	C	0.65668	0.53004	0.676629
480	N	0.649596	0.560991	0.676575
481	C	0.939038	0.363161	0.676456
482	N	0.908148	0.32482	0.676402
483	C	0.869745	0.317304	0.676473
484	N	0.862455	0.34825	0.676589
485	C	0.893098	0.386502	0.676626
486	N	0.93114	0.393611	0.676568
487	C	0.598144	0.940294	0.676463
488	N	0.605595	0.909405	0.676388
489	C	0.574708	0.871001	0.676446
490	N	0.536472	0.863709	0.676565
491	C	0.528862	0.894354	0.676623
492	N	0.559794	0.932397	0.676582
493	C	0.361975	0.445133	0.676463
494	N	0.323632	0.437677	0.676422
495	C	0.316106	0.468557	0.676483
496	N	0.347047	0.506794	0.676568
497	C	0.385302	0.514414	0.676592
498	N	0.392422	0.483487	0.676544
499	C	0.102935	0.681293	0.676432
500	N	0.13384	0.719628	0.676323
501	C	0.172237	0.727126	0.676398
502	N	0.179507	0.696165	0.676558
503	C	0.148852	0.657919	0.676636
504	N	0.110816	0.650831	0.676592
505	C	0.224314	0.462457	0.968945
506	N	0.259618	0.462806	0.970043
507	C	0.277186	0.462272	0.009832
508	N	0.25996	0.463505	0.716261
509	C	0.224646	0.463129	0.71737
510	C	0.205266	0.462576	0.676487
511	H	0.212844	0.463914	0.938162
512	H	0.213479	0.465183	0.748112
513	C	0.580791	0.785276	0.968935
514	N	0.580416	0.820217	0.970026
515	C	0.580994	0.838371	0.009794
516	N	0.579817	0.819927	0.716217
517	C	0.580221	0.785004	0.717342
518	C	0.580775	0.76616	0.676483
519	H	0.579293	0.772326	0.938155
520	H	0.578199	0.771807	0.748095
521	C	0.257907	0.818981	0.968908
522	N	0.222953	0.78367	0.969989
523	C	0.204886	0.766044	0.00977
524	N	0.223368	0.783225	0.716207
525	C	0.258305	0.818542	0.717336
526	C	0.277109	0.837956	0.676466
527	H	0.270813	0.830494	0.938128
528	H	0.271545	0.829673	0.748082
529	C	0.817761	0.58211	0.968894
530	N	0.782444	0.581734	0.969989
531	C	0.764801	0.582122	0.009777
532	N	0.78197	0.580776	0.7162
533	C	0.817295	0.581173	0.717312
534	C	0.836752	0.581878	0.676439
535	H	0.829286	0.580755	0.938107
536	H	0.828417	0.579032	0.748048
537	C	0.461192	0.259136	0.968922
538	N	0.461544	0.224182	0.970006
539	C	0.461005	0.206069	0.009787
540	N	0.462238	0.224521	0.716221
541	C	0.461859	0.259458	0.717342
542	C	0.461306	0.278294	0.67647
543	H	0.462656	0.272073	0.938145
544	H	0.463913	0.272672	0.748092
545	C	0.784058	0.225456	0.968966
546	N	0.818999	0.260775	0.970043
547	C	0.83711	0.278385	0.009811
548	N	0.818647	0.261168	0.716244
549	C	0.783723	0.225841	0.717373
550	C	0.764912	0.206398	0.676517
551	H	0.771132	0.213971	0.938185
552	H	0.770504	0.214695	0.748123
553	C	0.155056	0.606192	0.717624
554	N	0.154679	0.57091	0.716513
555	C	0.155672	0.553685	0.67668
556	N	0.155054	0.57111	0.970176
557	C	0.155487	0.606419	0.969078
558	C	0.15533	0.625331	0.010027
559	H	0.153199	0.617481	0.748371
560	H	0.153822	0.617807	0.938321
561	C	0.437	0.572344	0.71757
562	N	0.472288	0.60724	0.716489
563	C	0.489552	0.625477	0.67668
564	N	0.47215	0.607428	0.970169
565	C	0.436836	0.572562	0.969044
566	C	0.417845	0.5535	0.009963
567	H	0.425696	0.559194	0.74831
568	H	0.425478	0.55951	0.938277
569	C	0.470896	0.888077	0.717614
570	N	0.436002	0.888471	0.716503
571	C	0.4178	0.887558	0.67668
572	N	0.43589	0.888232	0.970189
573	C	0.470756	0.887782	0.969081
574	C	0.489783	0.887835	0.010021
575	H	0.484016	0.889884	0.748364
576	H	0.483829	0.889499	0.938321
577	C	0.886849	0.438206	0.717624
578	N	0.887249	0.473496	0.716527
579	C	0.886322	0.49076	0.676694
580	N	0.886992	0.473364	0.970189
581	C	0.88654	0.438047	0.969085
582	C	0.88659	0.419069	0.010027
583	H	0.888662	0.426889	0.748371
584	H	0.888247	0.426686	0.938328
585	C	0.604953	0.472107	0.717618
586	N	0.569672	0.437205	0.71651
587	C	0.55244	0.418992	0.676677
588	N	0.56986	0.437038	0.970169
589	C	0.60517	0.47191	0.969071
590	C	0.624089	0.490975	0.010019
591	H	0.616249	0.485251	0.748364
592	H	0.616555	0.484968	0.938315
593	C	0.571084	0.15632	0.717594
594	N	0.60598	0.155933	0.71651
595	C	0.624225	0.156924	0.676697
596	N	0.606179	0.156288	0.970189
597	C	0.571308	0.156732	0.969068
598	C	0.552243	0.156645	0.009992
599	H	0.557932	0.154462	0.748337
600	H	0.558262	0.15505	0.938304
601	C	0.040609	0.404447	0.969
602	N	6.3e-05	0.384839	0.970132
603	C	0.979245	0.3734	0.009757
604	N	6e-06	0.384911	0.716091
605	C	0.040547	0.404447	0.717332
606	C	0.062739	0.415385	0.676524
607	H	0.054604	0.413936	0.938287
608	H	0.054486	0.414116	0.748044
609	C	0.639146	0.65995	0.968962
610	N	0.658771	0.639021	0.970088
611	C	0.669855	0.629326	0.009747
612	N	0.658007	0.638203	0.716088
613	C	0.638429	0.659167	0.717349
614	C	0.627799	0.670675	0.676507
615	H	0.629897	0.664715	0.938226
616	H	0.628505	0.663186	0.748021
617	C	0.383358	0.002664	0.968952
618	N	0.404289	0.043215	0.970108
619	C	0.413886	0.06392	0.009811
620	N	0.404954	0.043191	0.716139
621	C	0.383979	0.002646	0.717322
622	C	0.37249	0.980517	0.676456
623	H	0.378651	0.988678	0.938206
624	H	0.379898	0.988672	0.747983
625	C	0.001411	0.640488	0.968966
626	N	0.041963	0.660105	0.970098
627	C	0.062729	0.671078	0.009767
628	N	0.041987	0.659108	0.716088
629	C	0.001445	0.639532	0.717322
630	C	0.979294	0.629043	0.676483
631	H	0.98741	0.631321	0.938213
632	H	0.987499	0.629523	0.747976
633	C	0.403239	0.384887	0.968996
634	N	0.383626	0.405821	0.970101
635	C	0.372198	0.41514	0.00976
636	N	0.383671	0.405925	0.716129
637	C	0.403214	0.384923	0.717342
638	C	0.414156	0.373672	0.676527
639	H	0.412742	0.380384	0.938287
640	H	0.412872	0.380632	0.748051
641	C	0.658529	0.04178	0.968945
642	N	0.637628	0.001227	0.970094
643	C	0.628135	0.980511	0.009791
644	N	0.637151	0.001224	0.716139
645	C	0.658105	0.041771	0.717342
646	C	0.669429	0.063881	0.676476
647	H	0.663167	0.055777	0.938216
648	H	0.662253	0.055739	0.748017
