data_C162H117N27_2018-02-15_10:45:39
#******************************************
#
# CIF file created by Zeo++
# Zeo++ is an open source package to
# analyze microporous materials
#
#*******************************************

_cell_length_a		29.5124   
_cell_length_b		29.5124   
_cell_length_c		30.0226   
_cell_angle_alpha		90   
_cell_angle_beta		90   
_cell_angle_gamma		120   

_symmetry_space_group_name_H-M		'P1'
_symmetry_Int_Tables_number		1
_symmetry_cell_setting		Monoclinic

loop_
_symmetry_equiv_pos_as_xyz
'+x,+y,+z'

loop_
_atom_site_label
_atom_site_type_symbol
_atom_site_fract_x
_atom_site_fract_y
_atom_site_fract_z
1	C	0.370159	0.648938	0.996453
2	C	0.386409	0.702901	0.996393
3	C	0.350119	0.721032	0.996463
4	C	0.296154	0.683318	0.996386
5	C	0.278024	0.628898	0.996433
6	C	0.315738	0.612645	0.99636
7	H	0.269448	0.695862	0.996852
8	H	0.303194	0.573398	0.996836
9	H	0.425659	0.729608	0.996869
10	C	0.365782	0.774133	0.997988
11	C	0.224923	0.591458	0.997955
12	C	0.407595	0.633272	0.997968
13	H	0.445314	0.660492	0.997685
14	H	0.214424	0.553741	0.997675
15	H	0.338562	0.784631	0.997712
16	C	0.62935	0.35077	0.993159
17	C	0.612179	0.296666	0.993015
18	C	0.64828	0.278391	0.993159
19	C	0.702386	0.315325	0.993015
20	C	0.720667	0.369704	0.993192
21	C	0.683727	0.386869	0.993012
22	H	0.728829	0.302442	0.991583
23	H	0.696611	0.426198	0.991576
24	H	0.572852	0.270221	0.991553
25	C	0.631538	0.22558	0.989495
26	C	0.773474	0.405767	0.989515
27	C	0.593294	0.367528	0.989485
28	H	0.562871	0.348278	0.969117
29	H	0.784646	0.436195	0.969153
30	H	0.650798	0.214412	0.969133
31	C	0.568154	0.428464	0.010989
32	C	0.553384	0.441301	0.051591
33	C	0.52241	0.465645	0.052868
34	C	0.507447	0.478776	0.011807
35	C	0.522994	0.466428	0.304472
36	C	0.553017	0.441645	0.304033
37	H	0.513489	0.476358	0.274626
38	H	0.564585	0.434141	0.274134
39	C	0.479184	0.506035	0.009557
40	C	0.501661	0.55792	0.025482
41	C	0.474249	0.585417	0.022336
42	C	0.42397	0.561848	0.336027
43	C	0.401466	0.509975	0.320354
44	C	0.428946	0.482512	0.323268
45	H	0.538162	0.576062	0.039529
46	H	0.491109	0.622524	0.034927
47	H	0.364908	0.491848	0.306401
48	H	0.564667	0.431844	0.080784
49	H	0.411727	0.444975	0.311465
50	N	0.507377	0.474503	0.093288
51	H	0.517378	0.464385	0.120825
52	H	0.484047	0.488647	0.096058
53	N	0.395254	0.584901	0.333342
54	N	0.598322	0.406956	0.01182
55	C	0.570602	0.139504	0.010989
56	C	0.557757	0.111895	0.051592
57	C	0.533419	0.056577	0.052869
58	C	0.52029	0.028483	0.011808
59	C	0.532641	0.056378	0.304472
60	C	0.557429	0.111184	0.304033
61	H	0.522718	0.036945	0.274626
62	H	0.564932	0.130258	0.274134
63	C	0.493028	0.972959	0.009558
64	C	0.441144	0.943556	0.025482
65	C	0.413643	0.888647	0.022338
66	C	0.437208	0.861932	0.33603
67	C	0.489083	0.8913	0.320356
68	C	0.516546	0.94624	0.32327
69	H	0.423002	0.961918	0.039528
70	H	0.376532	0.868399	0.034928
71	H	0.507207	0.872868	0.306404
72	H	0.567212	0.132635	0.080784
73	H	0.554084	0.966558	0.311467
74	N	0.524553	0.032686	0.093289
75	H	0.534667	0.052805	0.120825
76	H	0.510409	0.99521	0.096059
77	N	0.414153	0.810164	0.333346
78	N	0.592102	0.191178	0.011819
79	C	0.859557	0.430909	0.011003
80	C	0.887171	0.445679	0.051603
81	C	0.942489	0.476655	0.052873
82	C	0.970576	0.491613	0.011809
83	C	0.942675	0.476064	0.304476
84	C	0.887868	0.446043	0.304045
85	H	0.962102	0.485568	0.274628
86	H	0.86879	0.434474	0.274148
87	C	0.026096	0.519874	0.009552
88	C	0.055505	0.4974	0.025474
89	C	0.110413	0.524807	0.022323
90	C	0.137123	0.575084	0.33601
91	C	0.107753	0.597589	0.32034
92	C	0.052813	0.570111	0.32326
93	H	0.037147	0.460895	0.039523
94	H	0.130661	0.507944	0.034913
95	H	0.126183	0.634145	0.306386
96	H	0.866433	0.434395	0.080797
97	H	0.032494	0.587331	0.311459
98	N	0.966388	0.491687	0.09329
99	H	0.946272	0.481687	0.120829
100	H	0.00386	0.515018	0.096056
101	N	0.188892	0.603799	0.333326
102	N	0.807882	0.400735	0.01184
103	C	0.370159	0.648938	0.329786
104	C	0.386409	0.702901	0.329728
105	C	0.350119	0.721032	0.329796
106	C	0.296154	0.683318	0.329718
107	C	0.278024	0.628898	0.329766
108	C	0.315738	0.612645	0.329693
109	H	0.269448	0.695862	0.330187
110	H	0.303194	0.573398	0.330169
111	H	0.425659	0.729608	0.330202
112	C	0.365782	0.774133	0.33132
113	C	0.224923	0.591458	0.331288
114	C	0.407595	0.633272	0.331302
115	H	0.445314	0.660492	0.331018
116	H	0.214424	0.553741	0.331009
117	H	0.338562	0.784631	0.331046
118	C	0.62935	0.35077	0.326492
119	C	0.612179	0.296666	0.326348
120	C	0.64828	0.278391	0.326493
121	C	0.702386	0.315325	0.326349
122	C	0.720667	0.369704	0.326526
123	C	0.683727	0.386869	0.326345
124	H	0.728829	0.302442	0.324916
125	H	0.696611	0.426198	0.324909
126	H	0.572852	0.270221	0.324887
127	C	0.631538	0.22558	0.322827
128	C	0.773474	0.405767	0.322849
129	C	0.593294	0.367528	0.322819
130	H	0.562871	0.348278	0.302451
131	H	0.784646	0.436195	0.302486
132	H	0.650798	0.214412	0.302466
133	C	0.568154	0.428464	0.344321
134	C	0.553384	0.441301	0.384923
135	C	0.52241	0.465645	0.386202
136	C	0.507447	0.478776	0.34514
137	C	0.522994	0.466428	0.637806
138	C	0.553017	0.441645	0.637367
139	H	0.513489	0.476358	0.607959
140	H	0.564585	0.434141	0.607466
141	C	0.479184	0.506035	0.342892
142	C	0.501661	0.55792	0.358816
143	C	0.474249	0.585417	0.355669
144	C	0.42397	0.561848	0.669359
145	C	0.401466	0.509975	0.653688
146	C	0.428946	0.482512	0.656602
147	H	0.538162	0.576062	0.372862
148	H	0.491109	0.622524	0.368259
149	H	0.364908	0.491848	0.639735
150	H	0.564667	0.431844	0.414118
151	H	0.411727	0.444975	0.644798
152	N	0.507377	0.474503	0.426622
153	H	0.517378	0.464385	0.454158
154	H	0.484047	0.488647	0.42939
155	N	0.395254	0.584901	0.666678
156	N	0.598322	0.406956	0.345153
157	C	0.570602	0.139504	0.344321
158	C	0.557757	0.111895	0.384927
159	C	0.533419	0.056577	0.386202
160	C	0.52029	0.028483	0.34514
161	C	0.532641	0.056378	0.637806
162	C	0.557429	0.111184	0.637367
163	H	0.522718	0.036945	0.607959
164	H	0.564932	0.130258	0.607466
165	C	0.493028	0.972959	0.342892
166	C	0.441144	0.943556	0.358816
167	C	0.413643	0.888647	0.355672
168	C	0.437208	0.861932	0.669362
169	C	0.489083	0.8913	0.653688
170	C	0.516546	0.94624	0.656602
171	H	0.423002	0.961918	0.372862
172	H	0.376532	0.868399	0.368263
173	H	0.507207	0.872868	0.639738
174	H	0.567212	0.132635	0.414118
175	H	0.554084	0.966558	0.644801
176	N	0.524553	0.032686	0.426622
177	H	0.534667	0.052805	0.454158
178	H	0.510409	0.99521	0.429393
179	N	0.414153	0.810164	0.666681
180	N	0.592102	0.191178	0.345153
181	C	0.859557	0.430909	0.344337
182	C	0.887171	0.445679	0.384937
183	C	0.942489	0.476655	0.386206
184	C	0.970576	0.491613	0.345143
185	C	0.942675	0.476064	0.63781
186	C	0.887868	0.446043	0.637377
187	H	0.962102	0.485568	0.607962
188	H	0.86879	0.434474	0.607482
189	C	0.026096	0.519874	0.342885
190	C	0.055505	0.4974	0.358806
191	C	0.110413	0.524807	0.355655
192	C	0.137123	0.575084	0.669346
193	C	0.107753	0.597589	0.653674
194	C	0.052813	0.570111	0.656592
195	H	0.037147	0.460895	0.372856
196	H	0.130661	0.507944	0.368246
197	H	0.126183	0.634145	0.639718
198	H	0.866433	0.434395	0.414131
199	H	0.032494	0.587331	0.644791
200	N	0.966388	0.491687	0.426625
201	H	0.946272	0.481687	0.454161
202	H	0.00386	0.515018	0.42939
203	N	0.188892	0.603799	0.666658
204	N	0.807882	0.400735	0.345173
205	C	0.370159	0.648938	0.663121
206	C	0.386409	0.702901	0.663061
207	C	0.350119	0.721032	0.663131
208	C	0.296154	0.683318	0.663051
209	C	0.278024	0.628898	0.663097
210	C	0.315738	0.612645	0.663027
211	H	0.269448	0.695862	0.66352
212	H	0.303194	0.573398	0.663504
213	H	0.425659	0.729608	0.663537
214	C	0.365782	0.774133	0.664653
215	C	0.224923	0.591458	0.664623
216	C	0.407595	0.633272	0.664636
217	H	0.445314	0.660492	0.664353
218	H	0.214424	0.553741	0.664343
219	H	0.338562	0.784631	0.66438
220	C	0.62935	0.35077	0.659826
221	C	0.612179	0.296666	0.65968
222	C	0.64828	0.278391	0.659826
223	C	0.702386	0.315325	0.659683
224	C	0.720667	0.369704	0.65986
225	C	0.683727	0.386869	0.659676
226	H	0.728829	0.302442	0.658251
227	H	0.696611	0.426198	0.658241
228	H	0.572852	0.270221	0.658221
229	C	0.631538	0.22558	0.656159
230	C	0.773474	0.405767	0.656182
231	C	0.593294	0.367528	0.656152
232	H	0.562871	0.348278	0.635784
233	H	0.784646	0.436195	0.635821
234	H	0.650798	0.214412	0.635801
235	C	0.568154	0.428464	0.677656
236	C	0.553384	0.441301	0.718259
237	C	0.52241	0.465645	0.719535
238	C	0.507447	0.478776	0.678472
239	C	0.522994	0.466428	0.971139
240	C	0.553017	0.441645	0.970699
241	H	0.513489	0.476358	0.941291
242	H	0.564585	0.434141	0.940801
243	C	0.479184	0.506035	0.676224
244	C	0.501661	0.55792	0.692149
245	C	0.474249	0.585417	0.689004
246	C	0.42397	0.561848	0.002694
247	C	0.401466	0.509975	0.98702
248	C	0.428946	0.482512	0.989934
249	H	0.538162	0.576062	0.706195
250	H	0.491109	0.622524	0.701595
251	H	0.364908	0.491848	0.973067
252	H	0.564667	0.431844	0.74745
253	H	0.411727	0.444975	0.97813
254	N	0.507377	0.474503	0.759954
255	H	0.517378	0.464385	0.78749
256	H	0.484047	0.488647	0.762725
257	N	0.395254	0.584901	1e-05
258	N	0.598322	0.406956	0.678486
259	C	0.570602	0.139504	0.677656
260	C	0.557757	0.111895	0.718259
261	C	0.533419	0.056577	0.719535
262	C	0.52029	0.028483	0.678476
263	C	0.532641	0.056378	0.971139
264	C	0.557429	0.111184	0.970699
265	H	0.522718	0.036945	0.941294
266	H	0.564932	0.130258	0.940801
267	C	0.493028	0.972959	0.676224
268	C	0.441144	0.943556	0.692149
269	C	0.413643	0.888647	0.689004
270	C	0.437208	0.861932	0.002697
271	C	0.489083	0.8913	0.987023
272	C	0.516546	0.94624	0.989938
273	H	0.423002	0.961918	0.706195
274	H	0.376532	0.868399	0.701595
275	H	0.507207	0.872868	0.97307
276	H	0.567212	0.132635	0.74745
277	H	0.554084	0.966558	0.978133
278	N	0.524553	0.032686	0.759954
279	H	0.534667	0.052805	0.787494
280	H	0.510409	0.99521	0.762725
281	N	0.414153	0.810164	1.4e-05
282	N	0.592102	0.191178	0.678486
283	C	0.859557	0.430909	0.67767
284	C	0.887171	0.445679	0.718269
285	C	0.942489	0.476655	0.719538
286	C	0.970576	0.491613	0.678476
287	C	0.942675	0.476064	0.971142
288	C	0.887868	0.446043	0.970712
289	H	0.962102	0.485568	0.941294
290	H	0.86879	0.434474	0.940815
291	C	0.026096	0.519874	0.676217
292	C	0.055505	0.4974	0.692142
293	C	0.110413	0.524807	0.688991
294	C	0.137123	0.575084	0.002679
295	C	0.107753	0.597589	0.987007
296	C	0.052813	0.570111	0.989928
297	H	0.037147	0.460895	0.706188
298	H	0.130661	0.507944	0.701578
299	H	0.126183	0.634145	0.97305
300	H	0.866433	0.434395	0.747464
301	H	0.032494	0.587331	0.978127
302	N	0.966388	0.491687	0.759958
303	H	0.946272	0.481687	0.787497
304	H	0.00386	0.515018	0.762722
305	N	0.188892	0.603799	0.999992
306	N	0.807882	0.400735	0.678506
