data_C162H54N108_2018-02-15_10:38:24
#******************************************
#
# CIF file created by Zeo++
# Zeo++ is an open source package to
# analyze microporous materials
#
#*******************************************

_cell_length_a		30.0884   
_cell_length_b		30.0884   
_cell_length_c		29.6324   
_cell_angle_alpha		90   
_cell_angle_beta		90   
_cell_angle_gamma		120   

_symmetry_space_group_name_H-M		'P1'
_symmetry_Int_Tables_number		1
_symmetry_cell_setting		Monoclinic

loop_
_symmetry_equiv_pos_as_xyz
'+x,+y,+z'

loop_
_atom_site_label
_atom_site_type_symbol
_atom_site_fract_x
_atom_site_fract_y
_atom_site_fract_z
1	C	0.034272	0.476155	0.367827
2	C	0.061745	0.530136	0.362512
3	N	0.032472	0.552836	0.024692
4	H	0.0531	0.455799	0.369879
5	C	0.034272	0.476155	0.701161
6	C	0.061745	0.530136	0.695843
7	N	0.032472	0.552836	0.358027
8	H	0.0531	0.455799	0.703213
9	C	0.034272	0.476155	0.034493
10	C	0.061745	0.530136	0.029177
11	N	0.032472	0.552836	0.691361
12	H	0.0531	0.455799	0.036546
13	N	0.140831	0.611149	0.014469
14	C	0.11603	0.558803	0.021471
15	N	0.143194	0.533555	0.01504
16	N	0.140831	0.611149	0.347801
17	C	0.11603	0.558803	0.354804
18	N	0.143194	0.533555	0.348375
19	N	0.140831	0.611149	0.681136
20	C	0.11603	0.558803	0.688138
21	N	0.143194	0.533555	0.681706
22	C	0.18977	0.637564	0.997947
23	C	0.191969	0.557709	0.998447
24	C	0.18977	0.637564	0.33128
25	C	0.191969	0.557709	0.331781
26	C	0.18977	0.637564	0.664613
27	C	0.191969	0.557709	0.665113
28	N	0.211396	0.608244	0.990408
29	C	0.375999	0.557502	0.997941
30	N	0.402257	0.534856	0.01459
31	C	0.454606	0.562372	0.021815
32	N	0.480002	0.614849	0.015476
33	C	0.456006	0.639552	0.998666
34	N	0.405625	0.608325	0.990564
35	C	0.45269	0.822108	0.999284
36	N	0.476263	0.8709	0.015759
37	C	0.450386	0.897476	0.022018
38	N	0.398026	0.872094	0.014785
39	C	0.372217	0.823132	0.99815
40	N	0.402214	0.802251	0.990945
41	C	0.822365	0.372851	0.998126
42	N	0.871295	0.397474	0.014403
43	C	0.898451	0.449924	0.020906
44	N	0.873542	0.477479	0.014283
45	C	0.824422	0.454882	0.998133
46	N	0.80315	0.404102	0.990489
47	C	0.640306	0.454878	0.999709
48	N	0.615674	0.478925	0.01652
49	C	0.563272	0.453574	0.02302
50	N	0.535752	0.401258	0.015865
51	C	0.558299	0.374949	0.999152
52	N	0.60922	0.404359	0.991559
53	C	0.555264	0.189436	0.998217
54	N	0.532151	0.140444	0.014778
55	C	0.559135	0.115006	0.021656
56	N	0.611527	0.141502	0.015016
57	C	0.636654	0.190199	0.998325
58	N	0.606036	0.210177	0.990503
59	C	0.9527	0.47556	0.362117
60	C	0.980171	0.449076	0.367648
61	H	0.96136	0.409885	0.369558
62	N	0.981959	0.527557	0.024521
63	C	0.537567	0.482126	0.364186
64	C	0.563964	0.536023	0.370125
65	C	0.536939	0.563101	0.369737
66	C	0.483092	0.536698	0.36346
67	N	0.460454	0.484774	0.025302
68	H	0.557269	0.602265	0.372089
69	H	0.60311	0.556343	0.372666
70	N	0.485689	0.459503	0.025625
71	C	0.533196	0.060789	0.363112
72	C	0.559516	0.033317	0.369764
73	C	0.532483	0.979234	0.369835
74	C	0.478687	0.951745	0.363241
75	N	0.45607	0.980977	0.024447
76	H	0.552809	0.960449	0.37275
77	H	0.598635	0.052125	0.372592
78	N	0.481336	0.031509	0.02438
79	C	0.322897	0.540904	0.992572
80	C	0.279722	0.50146	0.015487
81	C	0.232348	0.501764	0.015836
82	C	0.228691	0.541476	0.993301
83	N	0.270264	0.573375	0.301467
84	H	0.203569	0.477436	0.03701
85	H	0.284288	0.477202	0.036652
86	N	0.312973	0.573007	0.301141
87	C	0.469432	0.785799	0.994137
88	C	0.509863	0.783051	0.016235
89	C	0.510683	0.735963	0.016127
90	C	0.471231	0.692305	0.993749
91	N	0.438249	0.701266	0.302737
92	H	0.535812	0.732114	0.036732
93	H	0.534313	0.812233	0.037016
94	N	0.43737	0.743692	0.302928
95	C	0.225419	0.690893	0.992663
96	C	0.228745	0.733591	0.016191
97	C	0.275897	0.781539	0.016254
98	C	0.319187	0.786405	0.992639
99	N	0.309566	0.745054	0.300364
100	H	0.280252	0.809766	0.038079
101	H	0.200198	0.728268	0.038046
102	N	0.267076	0.701727	0.30038
103	C	0.693261	0.4712	0.994316
104	C	0.736727	0.510771	0.016876
105	C	0.784326	0.510909	0.016344
106	C	0.787984	0.471615	0.993081
107	N	0.745863	0.439673	0.30169
108	H	0.813256	0.535102	0.037457
109	H	0.732325	0.534902	0.03834
110	N	0.702827	0.439374	0.302259
111	C	0.538979	0.226221	0.993061
112	C	0.500427	0.230822	0.016727
113	C	0.501331	0.278821	0.017058
114	C	0.5407	0.321665	0.993682
115	N	0.57146	0.310992	0.301144
116	H	0.477987	0.283955	0.038923
117	H	0.476635	0.202488	0.038501
118	N	0.570641	0.267676	0.300862
119	C	0.784984	0.320111	0.992788
120	C	0.780899	0.276326	0.014823
121	C	0.732937	0.229297	0.015011
122	C	0.689673	0.226603	0.993135
123	N	0.699618	0.268853	0.302191
124	H	0.728333	0.199962	0.035526
125	H	0.809889	0.280119	0.035376
126	N	0.742908	0.311298	0.302061
127	N	0.211396	0.608244	0.32374
128	C	0.375999	0.557502	0.331274
129	N	0.402257	0.534856	0.347923
130	C	0.454606	0.562372	0.355148
131	N	0.480002	0.614849	0.348811
132	C	0.456006	0.639552	0.331999
133	N	0.405625	0.608325	0.323897
134	C	0.45269	0.822108	0.332617
135	N	0.476263	0.8709	0.349094
136	C	0.450386	0.897476	0.355351
137	N	0.398026	0.872094	0.348119
138	C	0.372217	0.823132	0.331482
139	N	0.402214	0.802251	0.324279
140	C	0.822365	0.372851	0.331458
141	N	0.871295	0.397474	0.347737
142	C	0.898451	0.449924	0.35424
143	N	0.873542	0.477479	0.347616
144	C	0.824422	0.454882	0.331466
145	N	0.80315	0.404102	0.323823
146	C	0.640306	0.454878	0.333041
147	N	0.615674	0.478925	0.349853
148	C	0.563272	0.453574	0.356353
149	N	0.535752	0.401258	0.349199
150	C	0.558299	0.374949	0.332484
151	N	0.60922	0.404359	0.324891
152	C	0.555264	0.189436	0.331552
153	N	0.532151	0.140444	0.348112
154	C	0.559135	0.115006	0.35499
155	N	0.611527	0.141502	0.348348
156	C	0.636654	0.190199	0.331657
157	N	0.606036	0.210177	0.323837
158	C	0.9527	0.47556	0.695451
159	C	0.980171	0.449076	0.700982
160	H	0.96136	0.409885	0.702892
161	N	0.981959	0.527557	0.357855
162	C	0.537567	0.482126	0.69752
163	C	0.563964	0.536023	0.703456
164	C	0.536939	0.563101	0.703071
165	C	0.483092	0.536698	0.696794
166	N	0.460454	0.484774	0.358634
167	H	0.557269	0.602265	0.705423
168	H	0.60311	0.556343	0.706
169	N	0.485689	0.459503	0.358958
170	C	0.533196	0.060789	0.696447
171	C	0.559516	0.033317	0.703095
172	C	0.532483	0.979234	0.703169
173	C	0.478687	0.951745	0.696571
174	N	0.45607	0.980977	0.35778
175	H	0.552809	0.960449	0.706085
176	H	0.598635	0.052125	0.705923
177	N	0.481336	0.031509	0.357713
178	C	0.322897	0.540904	0.325903
179	C	0.279722	0.50146	0.348821
180	C	0.232348	0.501764	0.349168
181	C	0.228691	0.541476	0.326632
182	N	0.270264	0.573375	0.634801
183	H	0.203569	0.477436	0.370344
184	H	0.284288	0.477202	0.369987
185	N	0.312973	0.573007	0.634474
186	C	0.469432	0.785799	0.327472
187	C	0.509863	0.783051	0.34957
188	C	0.510683	0.735963	0.349462
189	C	0.471231	0.692305	0.327082
190	N	0.438249	0.701266	0.63607
191	H	0.535812	0.732114	0.370064
192	H	0.534313	0.812233	0.370351
193	N	0.43737	0.743692	0.636263
194	C	0.225419	0.690893	0.325997
195	C	0.228745	0.733591	0.349526
196	C	0.275897	0.781539	0.349587
197	C	0.319187	0.786405	0.325972
198	N	0.309566	0.745054	0.633698
199	H	0.280252	0.809766	0.371411
200	H	0.200198	0.728268	0.37138
201	N	0.267076	0.701727	0.633715
202	C	0.693261	0.4712	0.327651
203	C	0.736727	0.510771	0.350211
204	C	0.784326	0.510909	0.349678
205	C	0.787984	0.471615	0.326413
206	N	0.745863	0.439673	0.635024
207	H	0.813256	0.535102	0.37079
208	H	0.732325	0.534902	0.371674
209	N	0.702827	0.439374	0.635594
210	C	0.538979	0.226221	0.326392
211	C	0.500427	0.230822	0.350059
212	C	0.501331	0.278821	0.35039
213	C	0.5407	0.321665	0.327014
214	N	0.57146	0.310992	0.634477
215	H	0.477987	0.283955	0.372258
216	H	0.476635	0.202488	0.371836
217	N	0.570641	0.267676	0.634197
218	C	0.784984	0.320111	0.326121
219	C	0.780899	0.276326	0.348156
220	C	0.732937	0.229297	0.348345
221	C	0.689673	0.226603	0.326467
222	N	0.699618	0.268853	0.635523
223	H	0.728333	0.199962	0.368859
224	H	0.809889	0.280119	0.368711
225	N	0.742908	0.311298	0.635395
226	N	0.211396	0.608244	0.657074
227	C	0.375999	0.557502	0.664606
228	N	0.402257	0.534856	0.681257
229	C	0.454606	0.562372	0.688482
230	N	0.480002	0.614849	0.682145
231	C	0.456006	0.639552	0.665332
232	N	0.405625	0.608325	0.657229
233	C	0.45269	0.822108	0.66595
234	N	0.476263	0.8709	0.682425
235	C	0.450386	0.897476	0.688685
236	N	0.398026	0.872094	0.681453
237	C	0.372217	0.823132	0.664816
238	N	0.402214	0.802251	0.657614
239	C	0.822365	0.372851	0.664792
240	N	0.871295	0.397474	0.681068
241	C	0.898451	0.449924	0.687575
242	N	0.873542	0.477479	0.68095
243	C	0.824422	0.454882	0.664799
244	N	0.80315	0.404102	0.657155
245	C	0.640306	0.454878	0.666375
246	N	0.615674	0.478925	0.683187
247	C	0.563272	0.453574	0.689687
248	N	0.535752	0.401258	0.682533
249	C	0.558299	0.374949	0.665818
250	N	0.60922	0.404359	0.658225
251	C	0.555264	0.189436	0.664887
252	N	0.532151	0.140444	0.681446
253	C	0.559135	0.115006	0.688324
254	N	0.611527	0.141502	0.681682
255	C	0.636654	0.190199	0.664991
256	N	0.606036	0.210177	0.657172
257	C	0.9527	0.47556	0.028783
258	C	0.980171	0.449076	0.034314
259	H	0.96136	0.409885	0.036225
260	N	0.981959	0.527557	0.691189
261	C	0.537567	0.482126	0.030852
262	C	0.563964	0.536023	0.03679
263	C	0.536939	0.563101	0.036403
264	C	0.483092	0.536698	0.030126
265	N	0.460454	0.484774	0.691968
266	H	0.557269	0.602265	0.038755
267	H	0.60311	0.556343	0.039333
268	N	0.485689	0.459503	0.692292
269	C	0.533196	0.060789	0.02978
270	C	0.559516	0.033317	0.036429
271	C	0.532483	0.979234	0.036502
272	C	0.478687	0.951745	0.029906
273	N	0.45607	0.980977	0.691115
274	H	0.552809	0.960449	0.039417
275	H	0.598635	0.052125	0.039257
276	N	0.481336	0.031509	0.691047
277	C	0.322897	0.540904	0.659237
278	C	0.279722	0.50146	0.682155
279	C	0.232348	0.501764	0.682502
280	C	0.228691	0.541476	0.659966
281	N	0.270264	0.573375	0.968136
282	H	0.203569	0.477436	0.703679
283	H	0.284288	0.477202	0.703317
284	N	0.312973	0.573007	0.967808
285	C	0.469432	0.785799	0.660807
286	C	0.509863	0.783051	0.682901
287	C	0.510683	0.735963	0.682793
288	C	0.471231	0.692305	0.660415
289	N	0.438249	0.701266	0.969404
290	H	0.535812	0.732114	0.703398
291	H	0.534313	0.812233	0.703682
292	N	0.43737	0.743692	0.969597
293	C	0.225419	0.690893	0.659332
294	C	0.228745	0.733591	0.682857
295	C	0.275897	0.781539	0.682921
296	C	0.319187	0.786405	0.659305
297	N	0.309566	0.745054	0.967032
298	H	0.280252	0.809766	0.704745
299	H	0.200198	0.728268	0.704715
300	N	0.267076	0.701727	0.967049
301	C	0.693261	0.4712	0.660985
302	C	0.736727	0.510771	0.683545
303	C	0.784326	0.510909	0.683012
304	C	0.787984	0.471615	0.659747
305	N	0.745863	0.439673	0.968358
306	H	0.813256	0.535102	0.704124
307	H	0.732325	0.534902	0.705008
308	N	0.702827	0.439374	0.968925
309	C	0.538979	0.226221	0.659727
310	C	0.500427	0.230822	0.683393
311	C	0.501331	0.278821	0.683724
312	C	0.5407	0.321665	0.660348
313	N	0.57146	0.310992	0.967812
314	H	0.477987	0.283955	0.705589
315	H	0.476635	0.202488	0.705167
316	N	0.570641	0.267676	0.967528
317	C	0.784984	0.320111	0.659453
318	C	0.780899	0.276326	0.68149
319	C	0.732937	0.229297	0.681679
320	C	0.689673	0.226603	0.659801
321	N	0.699618	0.268853	0.968858
322	H	0.728333	0.199962	0.702194
323	H	0.809889	0.280119	0.702045
324	N	0.742908	0.311298	0.968726
