data_C186H126N36_2018-02-15_10:47:48
#******************************************
#
# CIF file created by Zeo++
# Zeo++ is an open source package to
# analyze microporous materials
#
#*******************************************

_cell_length_a		25.5974   
_cell_length_b		25.5972   
_cell_length_c		29.2112   
_cell_angle_alpha		90   
_cell_angle_beta		90   
_cell_angle_gamma		90.0373   

_symmetry_space_group_name_H-M		'P1'
_symmetry_Int_Tables_number		1
_symmetry_cell_setting		Monoclinic

loop_
_symmetry_equiv_pos_as_xyz
'+x,+y,+z'

loop_
_atom_site_label
_atom_site_type_symbol
_atom_site_fract_x
_atom_site_fract_y
_atom_site_fract_z
1	C	0.787082	0.020515	0.041585
2	C	0.73221	0.016636	0.038037
3	C	0.021628	0.238118	0.041264
4	C	0.017838	0.292997	0.037825
5	C	0.294305	0.003957	0.035347
6	C	0.239458	0.003817	0.040324
7	C	0.005754	0.786019	0.040505
8	C	0.005512	0.731154	0.035565
9	H	0.99602	0.708788	0.063368
10	H	0.996729	0.801931	0.071646
11	H	0.223611	0.993987	0.07131
12	H	0.316727	0.993976	0.062976
13	H	0.032612	0.22189	0.07179
14	H	0.025912	0.315139	0.066116
15	H	0.710002	0.024575	0.066311
16	H	0.803215	0.031567	0.072136
17	C	0.021144	0.485338	0.054057
18	N	0.020173	0.538453	0.054636
19	H	0.025188	0.465895	0.084421
20	N	0.019593	0.405306	0.013923
21	C	0.539943	0.019708	0.054124
22	N	0.486827	0.01878	0.054651
23	H	0.559361	0.023282	0.084548
24	N	0.62002	0.018514	0.014061
25	C	0.015102	0.56716	0.015821
26	N	0.015675	0.619169	0.018567
27	C	0.458157	0.014292	0.015758
28	N	0.406164	0.014776	0.018478
29	C	0.918913	0.874849	0.340279
30	C	0.880003	0.912154	0.340888
31	C	0.903347	0.961543	0.341271
32	N	0.955572	0.952069	0.342004
33	C	0.967223	0.900286	0.341107
34	C	0.016691	0.874685	0.340256
35	C	0.065608	0.901141	0.340349
36	N	0.074771	0.953221	0.341492
37	C	0.126437	0.964523	0.340491
38	C	0.152079	0.916409	0.33862
39	C	0.114746	0.877483	0.338984
40	C	0.150755	0.014529	0.340276
41	C	0.123095	0.062884	0.340784
42	N	0.070911	0.07238	0.342208
43	C	0.059319	0.124157	0.34099
44	C	0.107623	0.149548	0.339249
45	C	0.146511	0.112211	0.339587
46	C	0.009864	0.149755	0.340637
47	C	0.960928	0.123233	0.341369
48	N	0.951698	0.071135	0.341963
49	C	0.899994	0.05985	0.341482
50	C	0.874366	0.107981	0.340559
51	C	0.911735	0.146866	0.341088
52	C	0.875582	0.009892	0.340862
53	C	0.819657	0.008161	0.337314
54	C	0.708277	0.999539	0.330295
55	C	0.741043	0.988049	0.292549
56	C	0.795723	0.992745	0.29584
57	C	0.008982	0.205663	0.33698
58	C	0.000648	0.31703	0.330168
59	C	0.989004	0.284378	0.292376
60	C	0.993582	0.229693	0.295555
61	C	0.206555	0.016138	0.336294
62	C	0.229979	0.02897	0.293978
63	C	0.284682	0.029497	0.289181
64	C	0.318037	0.016736	0.326278
65	C	0.017427	0.818851	0.336257
66	C	0.029319	0.795321	0.29378
67	C	0.017274	0.707327	0.326317
68	C	0.029453	0.740612	0.289011
69	H	0.038141	0.725321	0.25753
70	H	0.037786	0.817945	0.265847
71	H	0.912164	0.835525	0.339224
72	H	0.840986	0.903716	0.340622
73	H	0.98153	0.979126	0.342264
74	H	0.044959	0.045336	0.3433
75	H	0.122841	0.83842	0.337859
76	H	0.191413	0.909904	0.337024
77	H	0.207287	0.037766	0.266173
78	H	0.299912	0.03885	0.257823
79	H	0.185535	0.120539	0.338465
80	H	0.114361	0.188847	0.337585
81	H	0.835015	0.114535	0.339563
82	H	0.903572	0.185927	0.34064
83	H	0.983989	0.207363	0.267723
84	H	0.976267	0.300103	0.262141
85	H	0.818114	0.983459	0.267973
86	H	0.7254	0.975427	0.26224
87	C	0.991705	0.370566	0.326712
88	C	0.372058	0.015742	0.319324
89	C	0.015982	0.65329	0.319413
90	C	0.6547	0.990792	0.326644
91	H	0.962487	0.382359	0.306781
92	H	0.384967	0.016523	0.28716
93	H	0.01608	0.640375	0.287242
94	H	0.642828	0.961871	0.306399
95	C	0.012377	0.488034	0.305348
96	C	0.015102	0.56716	0.349154
97	N	0.011377	0.54102	0.308744
98	C	0.00882	0.465922	0.258654
99	C	0.045451	0.487081	0.221152
100	C	0.054763	0.432629	0.241185
101	H	0.970472	0.453561	0.246317
102	H	0.044558	0.400126	0.218711
103	H	0.089038	0.429359	0.263292
104	H	0.074232	0.516478	0.231125
105	H	0.029731	0.487561	0.186416
106	N	0.015675	0.619169	0.351899
107	C	0.537319	0.012087	0.305327
108	C	0.458157	0.014292	0.349092
109	N	0.484325	0.011099	0.308664
110	C	0.559468	0.009149	0.25862
111	C	0.538444	0.046334	0.221501
112	C	0.592901	0.055288	0.241675
113	H	0.571741	0.970958	0.245881
114	H	0.625402	0.045355	0.219121
115	H	0.59624	0.089245	0.264156
116	H	0.509112	0.075014	0.23176
117	H	0.537958	0.031106	0.186597
118	N	0.406164	0.014776	0.35181
119	C	0.016419	0.457484	0.345854
120	N	0.019593	0.405306	0.347257
121	C	0.567829	0.015513	0.345898
122	N	0.62002	0.018514	0.347394
123	C	0.73221	0.016636	0.371371
124	C	0.017838	0.292997	0.371159
125	C	0.294305	0.003957	0.36868
126	C	0.239458	0.003817	0.373658
127	C	0.005754	0.786019	0.373839
128	C	0.005512	0.731154	0.368899
129	C	0.016419	0.457484	0.012519
130	C	0.567829	0.015513	0.012563
131	C	0.918913	0.874849	0.673611
132	C	0.880003	0.912154	0.674221
133	C	0.903347	0.961543	0.674604
134	N	0.955572	0.952069	0.675337
135	C	0.967223	0.900286	0.67444
136	C	0.016691	0.874685	0.673591
137	C	0.065608	0.901141	0.673683
138	N	0.074771	0.953221	0.674827
139	C	0.126437	0.964523	0.673824
140	C	0.152079	0.916409	0.671954
141	C	0.114746	0.877483	0.672317
142	C	0.150755	0.014529	0.673611
143	C	0.123095	0.062884	0.674118
144	N	0.070911	0.07238	0.675542
145	C	0.059319	0.124157	0.674323
146	C	0.107623	0.149548	0.672581
147	C	0.146511	0.112211	0.67292
148	C	0.009864	0.149755	0.673971
149	C	0.960928	0.123233	0.674703
150	N	0.951698	0.071135	0.675296
151	C	0.899994	0.05985	0.674816
152	C	0.874366	0.107981	0.673892
153	C	0.911735	0.146866	0.674423
154	C	0.875582	0.009892	0.674197
155	C	0.819657	0.008161	0.670647
156	C	0.787082	0.020515	0.374918
157	C	0.708277	0.999539	0.663629
158	C	0.741043	0.988049	0.625883
159	C	0.795723	0.992745	0.629173
160	C	0.008982	0.205663	0.670315
161	C	0.021628	0.238118	0.374596
162	C	0.000648	0.31703	0.663502
163	C	0.989004	0.284378	0.625708
164	C	0.993582	0.229693	0.628889
165	C	0.206555	0.016138	0.669626
166	C	0.229979	0.02897	0.627311
167	C	0.284682	0.029497	0.622514
168	C	0.318037	0.016736	0.65961
169	C	0.017427	0.818851	0.669592
170	C	0.029319	0.795321	0.627112
171	C	0.017274	0.707327	0.659651
172	C	0.029453	0.740612	0.622343
173	H	0.038141	0.725321	0.590862
174	H	0.037786	0.817945	0.599181
175	H	0.99602	0.708788	0.3967
176	H	0.996729	0.801931	0.404982
177	H	0.912164	0.835525	0.672557
178	H	0.840986	0.903716	0.673957
179	H	0.98153	0.979126	0.675597
180	H	0.044959	0.045336	0.676634
181	H	0.122841	0.83842	0.671191
182	H	0.191413	0.909904	0.670359
183	H	0.207287	0.037766	0.599506
184	H	0.299912	0.03885	0.591157
185	H	0.223611	0.993987	0.404643
186	H	0.316727	0.993976	0.39631
187	H	0.185535	0.120539	0.6718
188	H	0.114361	0.188847	0.670917
189	H	0.835015	0.114535	0.672896
190	H	0.903572	0.185927	0.673974
191	H	0.032612	0.22189	0.405122
192	H	0.025912	0.315139	0.399449
193	H	0.983989	0.207363	0.601057
194	H	0.976267	0.300103	0.595473
195	H	0.818114	0.983459	0.601307
196	H	0.7254	0.975427	0.595573
197	H	0.710002	0.024575	0.399645
198	H	0.803215	0.031567	0.405471
199	C	0.991705	0.370566	0.660045
200	C	0.372058	0.015742	0.652657
201	C	0.015982	0.65329	0.652746
202	C	0.6547	0.990792	0.659976
203	H	0.962487	0.382359	0.640114
204	H	0.384967	0.016523	0.620495
205	H	0.01608	0.640375	0.620577
206	H	0.642828	0.961871	0.639734
207	C	0.012377	0.488034	0.638683
208	C	0.021144	0.485338	0.387389
209	N	0.020173	0.538453	0.387971
210	C	0.015102	0.56716	0.682488
211	N	0.011377	0.54102	0.642079
212	H	0.025188	0.465895	0.417754
213	C	0.00882	0.465922	0.591988
214	C	0.045451	0.487081	0.554486
215	C	0.054763	0.432629	0.574519
216	H	0.970472	0.453561	0.579651
217	H	0.044558	0.400126	0.552045
218	H	0.089038	0.429359	0.596624
219	H	0.074232	0.516478	0.564458
220	H	0.029731	0.487561	0.519749
221	N	0.015675	0.619169	0.685234
222	C	0.537319	0.012087	0.638659
223	C	0.539943	0.019708	0.387457
224	N	0.486827	0.01878	0.387985
225	C	0.458157	0.014292	0.682426
226	N	0.484325	0.011099	0.641997
227	H	0.559361	0.023282	0.417881
228	C	0.559468	0.009149	0.591954
229	C	0.538444	0.046334	0.554835
230	C	0.592901	0.055288	0.575009
231	H	0.571741	0.970958	0.579216
232	H	0.625402	0.045355	0.552452
233	H	0.59624	0.089245	0.59749
234	H	0.509112	0.075014	0.565095
235	H	0.537958	0.031106	0.519931
236	N	0.406164	0.014776	0.685145
237	C	0.918913	0.874849	0.006946
238	C	0.880003	0.912154	0.007555
239	C	0.903347	0.961543	0.007938
240	N	0.955572	0.952069	0.008671
241	C	0.967223	0.900286	0.007774
242	C	0.016691	0.874685	0.006922
243	C	0.065608	0.901141	0.007018
244	N	0.074771	0.953221	0.008157
245	C	0.126437	0.964523	0.007158
246	C	0.152079	0.916409	0.005285
247	C	0.114746	0.877483	0.005652
248	C	0.150755	0.014529	0.006942
249	C	0.123095	0.062884	0.007452
250	N	0.070911	0.07238	0.008876
251	C	0.059319	0.124157	0.007658
252	C	0.107623	0.149548	0.005915
253	C	0.146511	0.112211	0.006254
254	C	0.009864	0.149755	0.007305
255	C	0.960928	0.123233	0.008034
256	N	0.951698	0.071135	0.00863
257	C	0.899994	0.05985	0.008147
258	C	0.874366	0.107981	0.007226
259	C	0.911735	0.146866	0.007754
260	C	0.875582	0.009892	0.007528
261	C	0.819657	0.008161	0.003981
262	C	0.787082	0.020515	0.708252
263	C	0.73221	0.016636	0.704705
264	C	0.708277	0.999539	0.996963
265	C	0.741043	0.988049	0.959217
266	C	0.795723	0.992745	0.962507
267	C	0.008982	0.205663	0.003646
268	C	0.021628	0.238118	0.70793
269	C	0.017838	0.292997	0.704493
270	C	0.000648	0.31703	0.996836
271	C	0.989004	0.284378	0.959043
272	C	0.993582	0.229693	0.962223
273	C	0.206555	0.016138	0.002961
274	C	0.229979	0.02897	0.960645
275	C	0.284682	0.029497	0.955849
276	C	0.318037	0.016736	0.992944
277	C	0.294305	0.003957	0.702015
278	C	0.239458	0.003817	0.706992
279	C	0.017427	0.818851	0.002923
280	C	0.029319	0.795321	0.960446
281	C	0.005754	0.786019	0.707174
282	C	0.005512	0.731154	0.702234
283	C	0.017274	0.707327	0.992985
284	C	0.029453	0.740612	0.955678
285	H	0.038141	0.725321	0.924197
286	H	0.037786	0.817945	0.932515
287	H	0.99602	0.708788	0.730035
288	H	0.996729	0.801931	0.738312
289	H	0.912164	0.835525	0.005891
290	H	0.840986	0.903716	0.007288
291	H	0.98153	0.979126	0.008931
292	H	0.044959	0.045336	0.009965
293	H	0.122841	0.83842	0.004525
294	H	0.191413	0.909904	0.00369
295	H	0.207287	0.037766	0.932841
296	H	0.299912	0.03885	0.924491
297	H	0.223611	0.993987	0.737977
298	H	0.316727	0.993976	0.729645
299	H	0.185535	0.120539	0.005131
300	H	0.114361	0.188847	0.004251
301	H	0.835015	0.114535	0.00623
302	H	0.903572	0.185927	0.007308
303	H	0.032612	0.22189	0.738456
304	H	0.025912	0.315139	0.732784
305	H	0.983989	0.207363	0.934388
306	H	0.976267	0.300103	0.928808
307	H	0.818114	0.983459	0.934641
308	H	0.7254	0.975427	0.928907
309	H	0.710002	0.024575	0.732979
310	H	0.803215	0.031567	0.738802
311	C	0.991705	0.370566	0.993379
312	C	0.372058	0.015742	0.985991
313	C	0.015982	0.65329	0.98608
314	C	0.6547	0.990792	0.99331
315	H	0.962487	0.382359	0.973448
316	H	0.384967	0.016523	0.953826
317	H	0.01608	0.640375	0.953908
318	H	0.642828	0.961871	0.973065
319	C	0.012377	0.488034	0.972014
320	C	0.016419	0.457484	0.679188
321	C	0.021144	0.485338	0.720723
322	N	0.020173	0.538453	0.721302
323	N	0.011377	0.54102	0.975413
324	H	0.025188	0.465895	0.751088
325	C	0.00882	0.465922	0.925323
326	C	0.045451	0.487081	0.88782
327	C	0.054763	0.432629	0.90785
328	H	0.970472	0.453561	0.912985
329	H	0.044558	0.400126	0.885379
330	H	0.089038	0.429359	0.929958
331	H	0.074232	0.516478	0.897792
332	H	0.029731	0.487561	0.853083
333	N	0.019593	0.405306	0.680591
334	C	0.537319	0.012087	0.971993
335	C	0.567829	0.015513	0.679229
336	C	0.539943	0.019708	0.720792
337	N	0.486827	0.01878	0.721319
338	N	0.484325	0.011099	0.975331
339	H	0.559361	0.023282	0.751215
340	C	0.559468	0.009149	0.925289
341	C	0.538444	0.046334	0.888166
342	C	0.592901	0.055288	0.908343
343	H	0.571741	0.970958	0.912547
344	H	0.625402	0.045355	0.885787
345	H	0.59624	0.089245	0.930824
346	H	0.509112	0.075014	0.898426
347	H	0.537958	0.031106	0.853265
348	N	0.62002	0.018514	0.680728
