data_C360H252N36_2018-02-15_10:38:55
#******************************************
#
# CIF file created by Zeo++
# Zeo++ is an open source package to
# analyze microporous materials
#
#*******************************************

_cell_length_a		29.4889   
_cell_length_b		29.489   
_cell_length_c		29.4334   
_cell_angle_alpha		90   
_cell_angle_beta		90   
_cell_angle_gamma		120   

_symmetry_space_group_name_H-M		'P1'
_symmetry_Int_Tables_number		1
_symmetry_cell_setting		Monoclinic

loop_
_symmetry_equiv_pos_as_xyz
'+x,+y,+z'

loop_
_atom_site_label
_atom_site_type_symbol
_atom_site_fract_x
_atom_site_fract_y
_atom_site_fract_z
1	C	0.125481	0.315146	0.010261
2	H	0.133474	0.247696	0.010597
3	H	0.133474	0.390589	0.010586
4	C	0.070275	0.287543	0.010883
5	C	0.042673	0.273739	0.052456
6	H	0.06347	0.284135	0.082232
7	C	0.125482	0.815148	0.010261
8	H	0.133474	0.747696	0.010597
9	H	0.133474	0.890587	0.010586
10	C	0.070275	0.787542	0.010883
11	C	0.042673	0.773739	0.052456
12	H	0.06347	0.784135	0.082232
13	C	0.153544	0.370519	0.010365
14	C	0.208917	0.398583	0.010256
15	C	0.208917	0.315146	0.010264
16	C	0.153544	0.287837	0.010371
17	C	0.153545	0.870519	0.010365
18	C	0.208918	0.898583	0.010256
19	C	0.208918	0.815148	0.010264
20	C	0.153544	0.787836	0.010371
21	C	0.236226	0.370519	0.010371
22	H	0.252522	0.128668	0.011451
23	C	0.23652	0.287543	0.010884
24	C	0.25032	0.273741	0.052456
25	H	0.239922	0.284137	0.082233
26	C	0.236519	0.453787	0.010881
27	C	0.250325	0.481385	0.052456
28	H	0.239931	0.460588	0.082231
29	C	0.236227	0.870519	0.010371
30	H	0.252522	0.628666	0.011451
31	C	0.236519	0.787542	0.010884
32	C	0.250319	0.773739	0.052456
33	H	0.239921	0.784135	0.082233
34	C	0.23652	0.953787	0.010881
35	C	0.250325	0.981385	0.052456
36	H	0.239929	0.960585	0.082231
37	C	0.041544	0.273183	0.303306
38	H	0.060519	0.282672	0.272657
39	C	0.125481	0.315146	0.343593
40	H	0.133474	0.247696	0.343932
41	H	0.133474	0.390589	0.343919
42	C	0.041544	0.273183	0.636641
43	C	0.070275	0.287543	0.344218
44	C	0.042673	0.273739	0.38579
45	H	0.060519	0.282672	0.605992
46	H	0.06347	0.284135	0.415565
47	C	0.125481	0.315146	0.676928
48	H	0.133474	0.247696	0.677264
49	H	0.133474	0.390589	0.677254
50	C	0.041544	0.273183	0.969973
51	C	0.070275	0.287543	0.67755
52	C	0.042673	0.273739	0.719122
53	H	0.060519	0.282672	0.939324
54	H	0.06347	0.284135	0.748901
55	C	0.041544	0.773183	0.303306
56	H	0.060519	0.782671	0.272657
57	C	0.125482	0.815148	0.343593
58	H	0.133474	0.747696	0.343932
59	H	0.133474	0.890587	0.343919
60	C	0.041544	0.773183	0.636641
61	C	0.070275	0.787542	0.344218
62	C	0.042673	0.773739	0.38579
63	H	0.060519	0.782671	0.605992
64	H	0.06347	0.784135	0.415565
65	C	0.125482	0.815148	0.676928
66	H	0.133474	0.747696	0.677264
67	H	0.133474	0.890587	0.677254
68	C	0.041544	0.773183	0.969973
69	C	0.070275	0.787542	0.67755
70	C	0.042673	0.773739	0.719122
71	H	0.060519	0.782671	0.939324
72	H	0.06347	0.784135	0.748901
73	C	0.153544	0.370519	0.343698
74	C	0.208917	0.398583	0.343589
75	C	0.208917	0.315146	0.343596
76	C	0.153544	0.287837	0.343705
77	C	0.153544	0.370519	0.677033
78	C	0.208917	0.398583	0.676921
79	C	0.208917	0.315146	0.676931
80	C	0.153544	0.287837	0.677037
81	C	0.153545	0.870519	0.343698
82	C	0.208918	0.898583	0.343589
83	C	0.208918	0.815148	0.343596
84	C	0.153544	0.787836	0.343705
85	C	0.153545	0.870519	0.677033
86	C	0.208918	0.898583	0.676921
87	C	0.208918	0.815148	0.676931
88	C	0.153544	0.787836	0.677037
89	C	0.250886	0.273181	0.303306
90	H	0.241399	0.28267	0.272658
91	C	0.250879	0.482524	0.303306
92	H	0.241387	0.463549	0.272656
93	C	0.236226	0.370519	0.343705
94	H	0.252522	0.128668	0.344785
95	C	0.250886	0.273181	0.636641
96	C	0.23652	0.287543	0.344218
97	C	0.25032	0.273741	0.38579
98	H	0.241399	0.28267	0.605992
99	H	0.239922	0.284137	0.415569
100	C	0.250879	0.482524	0.636641
101	C	0.236519	0.453787	0.344214
102	C	0.250325	0.481385	0.38579
103	H	0.241387	0.463549	0.605988
104	H	0.239931	0.460588	0.415565
105	C	0.236226	0.370519	0.677037
106	H	0.252522	0.128668	0.678117
107	C	0.250886	0.273181	0.969973
108	C	0.23652	0.287543	0.67755
109	C	0.25032	0.273741	0.719122
110	H	0.241399	0.28267	0.939324
111	H	0.239922	0.284137	0.748901
112	C	0.250879	0.482524	0.969973
113	C	0.236519	0.453787	0.677546
114	C	0.250325	0.481385	0.719122
115	H	0.241387	0.463549	0.939324
116	H	0.239931	0.460588	0.748897
117	C	0.250886	0.773179	0.303306
118	H	0.2414	0.782671	0.272658
119	C	0.250877	0.98252	0.303306
120	H	0.241387	0.963549	0.272656
121	C	0.236227	0.870519	0.343705
122	H	0.252522	0.628666	0.344785
123	C	0.250886	0.773179	0.636641
124	C	0.236519	0.787542	0.344218
125	C	0.250319	0.773739	0.38579
126	H	0.2414	0.782671	0.605992
127	H	0.239921	0.784135	0.415569
128	C	0.250877	0.98252	0.636641
129	C	0.23652	0.953787	0.344214
130	C	0.250325	0.981385	0.38579
131	H	0.241387	0.963549	0.605988
132	H	0.239929	0.960585	0.415565
133	C	0.236227	0.870519	0.677037
134	H	0.252522	0.628666	0.678117
135	C	0.250886	0.773179	0.969973
136	C	0.236519	0.787542	0.67755
137	C	0.250319	0.773739	0.719122
138	H	0.2414	0.782671	0.939324
139	H	0.239921	0.784135	0.748901
140	C	0.250877	0.98252	0.969973
141	C	0.23652	0.953787	0.677546
142	C	0.250325	0.981385	0.719122
143	H	0.241387	0.963549	0.939324
144	H	0.239929	0.960585	0.748897
145	H	0.276367	0.390589	0.010594
146	C	0.292654	0.148733	0.010826
147	C	0.278095	0.245966	0.05396
148	C	0.292317	0.231747	0.012262
149	N	0.290125	0.233935	0.095233
150	H	0.280062	0.243998	0.123334
151	C	0.278098	0.036935	0.053965
152	C	0.292314	0.065382	0.01227
153	N	0.290128	0.060991	0.09524
154	H	0.280065	0.040862	0.123339
155	H	0.276366	0.890587	0.010594
156	C	0.292655	0.648734	0.010826
157	C	0.278094	0.745965	0.05396
158	C	0.292317	0.731747	0.012262
159	N	0.290126	0.733936	0.095233
160	H	0.280063	0.743999	0.123334
161	C	0.278097	0.536933	0.053965
162	C	0.292314	0.565381	0.01227
163	N	0.290128	0.560991	0.09524
164	H	0.280065	0.54086	0.123339
165	C	0.27843	0.245638	0.304016
166	H	0.288285	0.235784	0.273698
167	C	0.27842	0.037609	0.304022
168	H	0.288272	0.057321	0.273705
169	H	0.276367	0.390589	0.343926
170	C	0.292654	0.148733	0.34416
171	C	0.27843	0.245638	0.637351
172	C	0.278095	0.245966	0.387295
173	C	0.292317	0.231747	0.345597
174	H	0.288285	0.235784	0.607031
175	N	0.290125	0.233935	0.428567
176	H	0.280062	0.243998	0.456668
177	C	0.27842	0.037609	0.637354
178	C	0.278098	0.036935	0.387298
179	C	0.292314	0.065382	0.345604
180	H	0.288272	0.057321	0.607038
181	N	0.290128	0.060991	0.428574
182	H	0.280065	0.040862	0.456672
183	H	0.276367	0.390589	0.677261
184	C	0.292654	0.148733	0.677492
185	C	0.27843	0.245638	0.970683
186	C	0.278095	0.245966	0.720627
187	C	0.292317	0.231747	0.678929
188	H	0.288285	0.235784	0.940363
189	N	0.290125	0.233935	0.7619
190	H	0.280062	0.243998	0.79
191	C	0.27842	0.037609	0.97069
192	C	0.278098	0.036935	0.720634
193	C	0.292314	0.065382	0.678936
194	H	0.288272	0.057321	0.940374
195	N	0.290128	0.060991	0.761906
196	H	0.280065	0.040862	0.790007
197	C	0.278429	0.745636	0.304016
198	H	0.288285	0.735784	0.273698
199	C	0.278421	0.53761	0.304022
200	H	0.288273	0.557322	0.273705
201	H	0.276366	0.890587	0.343926
202	C	0.292655	0.648734	0.34416
203	C	0.278429	0.745636	0.637351
204	C	0.278094	0.745965	0.387295
205	C	0.292317	0.731747	0.345597
206	H	0.288285	0.735784	0.607031
207	N	0.290126	0.733936	0.428567
208	H	0.280063	0.743999	0.456668
209	C	0.278421	0.53761	0.637354
210	C	0.278097	0.536933	0.387298
211	C	0.292314	0.565381	0.345604
212	H	0.288273	0.557322	0.607038
213	N	0.290128	0.560991	0.428574
214	H	0.280065	0.54086	0.456672
215	H	0.276366	0.890587	0.677261
216	C	0.292655	0.648734	0.677492
217	C	0.278429	0.745636	0.970683
218	C	0.278094	0.745965	0.720627
219	C	0.292317	0.731747	0.678929
220	H	0.288285	0.735784	0.940363
221	N	0.290126	0.733936	0.7619
222	H	0.280063	0.743999	0.79
223	C	0.278421	0.53761	0.97069
224	C	0.278097	0.536933	0.720634
225	C	0.292314	0.565381	0.678936
226	H	0.288273	0.557322	0.940374
227	N	0.290128	0.560991	0.761906
228	H	0.280065	0.54086	0.790007
229	C	0.403408	0.20411	0.010655
230	C	0.37533	0.148733	0.010844
231	C	0.319953	0.120655	0.010665
232	C	0.319952	0.20411	0.010651
233	C	0.375329	0.231408	0.01082
234	H	0.395395	0.27154	0.011444
235	H	0.395395	0.128667	0.011461
236	H	0.309076	0.214987	0.09814
237	H	0.309072	0.09889	0.09815
238	C	0.487123	0.245965	0.053961
239	C	0.458681	0.231748	0.012265
240	N	0.463064	0.233935	0.095235
241	H	0.483193	0.243998	0.123335
242	H	0.425166	0.214989	0.098142
243	C	0.403409	0.70411	0.010655
244	C	0.37533	0.648734	0.010844
245	C	0.319953	0.620655	0.010665
246	C	0.319953	0.70411	0.010651
247	C	0.375329	0.731406	0.01082
248	H	0.395395	0.771538	0.011444
249	H	0.395395	0.628666	0.011461
250	H	0.309077	0.714988	0.09814
251	H	0.309074	0.598891	0.09815
252	C	0.487125	0.745965	0.053961
253	C	0.458682	0.731747	0.012265
254	N	0.463066	0.733936	0.095235
255	H	0.483191	0.743995	0.123335
256	H	0.425166	0.714988	0.098142
257	C	0.625482	0.315146	0.010261
258	C	0.653545	0.370519	0.010365
259	C	0.708918	0.398583	0.010256
260	C	0.736227	0.370519	0.010371
261	C	0.708917	0.315146	0.010264
262	C	0.653545	0.287837	0.010371
263	H	0.776368	0.390589	0.010594
264	H	0.633474	0.247696	0.010597
265	H	0.633474	0.390589	0.010586
266	C	0.903408	0.20411	0.010655
267	C	0.875329	0.148733	0.010844
268	C	0.819953	0.120655	0.010665
269	C	0.792654	0.148733	0.010826
270	C	0.819952	0.20411	0.010651
271	C	0.875329	0.231408	0.01082
272	H	0.752522	0.128668	0.011451
273	H	0.895395	0.27154	0.011444
274	H	0.895396	0.128667	0.011461
275	C	0.736521	0.287543	0.010884
276	C	0.750322	0.273741	0.052456
277	C	0.778095	0.245966	0.05396
278	C	0.792318	0.231747	0.012262
279	H	0.739921	0.284137	0.082233
280	N	0.790126	0.233935	0.095233
281	H	0.780064	0.243998	0.123334
282	H	0.809077	0.214987	0.09814
283	C	0.73652	0.453787	0.010881
284	C	0.750326	0.481385	0.052456
285	C	0.778099	0.036935	0.053965
286	C	0.792316	0.065382	0.01227
287	H	0.739931	0.460588	0.082231
288	N	0.790127	0.060991	0.09524
289	H	0.780066	0.040862	0.123339
290	H	0.809073	0.09889	0.09815
291	C	0.570275	0.287543	0.010883
292	C	0.542673	0.273739	0.052456
293	C	0.987125	0.245965	0.053961
294	C	0.958683	0.231748	0.012265
295	H	0.563471	0.284135	0.082232
296	N	0.963066	0.233935	0.095235
297	H	0.983191	0.243998	0.123335
298	H	0.925165	0.214989	0.098142
299	C	0.625483	0.815148	0.010261
300	C	0.653546	0.870519	0.010365
301	C	0.708919	0.898583	0.010256
302	C	0.736228	0.870519	0.010371
303	C	0.708919	0.815148	0.010264
304	C	0.653545	0.787836	0.010371
305	H	0.776367	0.890587	0.010594
306	H	0.633475	0.747696	0.010597
307	H	0.633474	0.890587	0.010586
308	C	0.903409	0.70411	0.010655
309	C	0.875331	0.648734	0.010844
310	C	0.819954	0.620655	0.010665
311	C	0.792656	0.648734	0.010826
312	C	0.819954	0.70411	0.010651
313	C	0.87533	0.731406	0.01082
314	H	0.752523	0.628666	0.011451
315	H	0.895396	0.771538	0.011444
316	H	0.895397	0.628666	0.011461
317	C	0.736522	0.787542	0.010884
318	C	0.750319	0.773739	0.052456
319	C	0.778095	0.745965	0.05396
320	C	0.792317	0.731747	0.012262
321	H	0.739922	0.784135	0.082233
322	N	0.790128	0.733936	0.095233
323	H	0.780063	0.743999	0.123334
324	H	0.809079	0.714988	0.09814
325	C	0.736521	0.953787	0.010881
326	C	0.750326	0.981385	0.052456
327	C	0.778096	0.536933	0.053965
328	C	0.792313	0.565381	0.01227
329	H	0.73993	0.960585	0.082231
330	N	0.790129	0.560991	0.09524
331	H	0.780067	0.54086	0.123339
332	H	0.809076	0.598891	0.09815
333	C	0.570275	0.787542	0.010883
334	C	0.542675	0.773739	0.052456
335	C	0.987127	0.745965	0.053961
336	C	0.958684	0.731747	0.012265
337	H	0.563471	0.784135	0.082232
338	N	0.963068	0.733936	0.095235
339	H	0.983192	0.743995	0.123335
340	H	0.925166	0.714988	0.098142
341	C	0.486459	0.24564	0.304018
342	H	0.466748	0.235788	0.2737
343	C	0.403408	0.20411	0.343987
344	C	0.37533	0.148733	0.344177
345	C	0.319953	0.120655	0.343997
346	C	0.319952	0.20411	0.343983
347	C	0.375329	0.231408	0.344153
348	H	0.395395	0.27154	0.344778
349	H	0.395395	0.128667	0.344795
350	H	0.309076	0.214987	0.431472
351	H	0.309072	0.09889	0.431482
352	C	0.486459	0.24564	0.637351
353	C	0.487123	0.245965	0.387295
354	C	0.458681	0.231748	0.345597
355	H	0.466748	0.235788	0.607035
356	N	0.463064	0.233935	0.428567
357	H	0.483193	0.243998	0.456668
358	H	0.425166	0.214989	0.431476
359	C	0.403408	0.20411	0.677322
360	C	0.37533	0.148733	0.677512
361	C	0.319953	0.120655	0.677332
362	C	0.319952	0.20411	0.677319
363	C	0.375329	0.231408	0.677489
364	H	0.395395	0.27154	0.67811
365	H	0.395395	0.128667	0.678127
366	H	0.309076	0.214987	0.764808
367	H	0.309072	0.09889	0.764818
368	C	0.486459	0.24564	0.970686
369	C	0.487123	0.245965	0.720627
370	C	0.458681	0.231748	0.678933
371	H	0.466748	0.235788	0.940367
372	N	0.463064	0.233935	0.761903
373	H	0.483193	0.243998	0.79
374	H	0.425166	0.214989	0.764808
375	C	0.486458	0.74564	0.304018
376	H	0.466749	0.735788	0.2737
377	C	0.403409	0.70411	0.343987
378	C	0.37533	0.648734	0.344177
379	C	0.319953	0.620655	0.343997
380	C	0.319953	0.70411	0.343983
381	C	0.375329	0.731406	0.344153
382	H	0.395395	0.771538	0.344778
383	H	0.395395	0.628666	0.344795
384	H	0.309077	0.714988	0.431472
385	H	0.309074	0.598891	0.431482
386	C	0.486458	0.74564	0.637351
387	C	0.487125	0.745965	0.387295
388	C	0.458682	0.731747	0.345597
389	H	0.466749	0.735788	0.607035
390	N	0.463066	0.733936	0.428567
391	H	0.483191	0.743995	0.456668
392	H	0.425166	0.714988	0.431476
393	C	0.403409	0.70411	0.677322
394	C	0.37533	0.648734	0.677512
395	C	0.319953	0.620655	0.677332
396	C	0.319953	0.70411	0.677319
397	C	0.375329	0.731406	0.677489
398	H	0.395395	0.771538	0.67811
399	H	0.395395	0.628666	0.678127
400	H	0.309077	0.714988	0.764808
401	H	0.309074	0.598891	0.764818
402	C	0.486458	0.74564	0.970686
403	C	0.487125	0.745965	0.720627
404	C	0.458682	0.731747	0.678933
405	H	0.466749	0.735788	0.940367
406	N	0.463066	0.733936	0.761903
407	H	0.483191	0.743995	0.79
408	H	0.425166	0.714988	0.764808
409	C	0.778432	0.245638	0.304016
410	C	0.750886	0.273181	0.303306
411	H	0.788284	0.235784	0.273698
412	H	0.741398	0.28267	0.272658
413	C	0.778423	0.037609	0.304022
414	C	0.750878	0.482524	0.303306
415	H	0.788272	0.057321	0.273705
416	H	0.741387	0.463549	0.272656
417	C	0.986457	0.24564	0.304018
418	C	0.541544	0.273183	0.303306
419	H	0.966749	0.235788	0.2737
420	H	0.560518	0.282672	0.272657
421	C	0.625482	0.315146	0.343593
422	C	0.653545	0.370519	0.343698
423	C	0.708918	0.398583	0.343589
424	C	0.736227	0.370519	0.343705
425	C	0.708917	0.315146	0.343596
426	C	0.653545	0.287837	0.343705
427	H	0.776368	0.390589	0.343926
428	H	0.633474	0.247696	0.343932
429	H	0.633474	0.390589	0.343919
430	C	0.903408	0.20411	0.343987
431	C	0.875329	0.148733	0.344177
432	C	0.819953	0.120655	0.343997
433	C	0.792654	0.148733	0.34416
434	C	0.819952	0.20411	0.343983
435	C	0.875329	0.231408	0.344153
436	H	0.752522	0.128668	0.344785
437	H	0.895395	0.27154	0.344778
438	H	0.895396	0.128667	0.344795
439	C	0.778432	0.245638	0.637351
440	C	0.750886	0.273181	0.636641
441	C	0.736521	0.287543	0.344218
442	C	0.750322	0.273741	0.38579
443	C	0.778095	0.245966	0.387295
444	C	0.792318	0.231747	0.345597
445	H	0.788284	0.235784	0.607031
446	H	0.741398	0.28267	0.605992
447	H	0.739921	0.284137	0.415569
448	N	0.790126	0.233935	0.428567
449	H	0.780064	0.243998	0.456668
450	H	0.809077	0.214987	0.431472
451	C	0.778423	0.037609	0.637354
452	C	0.750878	0.482524	0.636641
453	C	0.73652	0.453787	0.344214
454	C	0.750326	0.481385	0.38579
455	C	0.778099	0.036935	0.387298
456	C	0.792316	0.065382	0.345604
457	H	0.788272	0.057321	0.607038
458	H	0.741387	0.463549	0.605988
459	H	0.739931	0.460588	0.415565
460	N	0.790127	0.060991	0.428574
461	H	0.780066	0.040862	0.456672
462	H	0.809073	0.09889	0.431482
463	C	0.986457	0.24564	0.637351
464	C	0.541544	0.273183	0.636641
465	C	0.570275	0.287543	0.344218
466	C	0.542673	0.273739	0.38579
467	C	0.987125	0.245965	0.387295
468	C	0.958683	0.231748	0.345597
469	H	0.966749	0.235788	0.607035
470	H	0.560518	0.282672	0.605992
471	H	0.563471	0.284135	0.415565
472	N	0.963066	0.233935	0.428567
473	H	0.983191	0.243998	0.456668
474	H	0.925165	0.214989	0.431476
475	C	0.625482	0.315146	0.676928
476	C	0.653545	0.370519	0.677033
477	C	0.708918	0.398583	0.676921
478	C	0.736227	0.370519	0.677037
479	C	0.708917	0.315146	0.676931
480	C	0.653545	0.287837	0.677037
481	H	0.776368	0.390589	0.677261
482	H	0.633474	0.247696	0.677264
483	H	0.633474	0.390589	0.677254
484	C	0.903408	0.20411	0.677322
485	C	0.875329	0.148733	0.677512
486	C	0.819953	0.120655	0.677332
487	C	0.792654	0.148733	0.677492
488	C	0.819952	0.20411	0.677319
489	C	0.875329	0.231408	0.677489
490	H	0.752522	0.128668	0.678117
491	H	0.895395	0.27154	0.67811
492	H	0.895396	0.128667	0.678127
493	C	0.778432	0.245638	0.970683
494	C	0.750886	0.273181	0.969973
495	C	0.736521	0.287543	0.67755
496	C	0.750322	0.273741	0.719122
497	C	0.778095	0.245966	0.720627
498	C	0.792318	0.231747	0.678929
499	H	0.788284	0.235784	0.940363
500	H	0.741398	0.28267	0.939324
501	H	0.739921	0.284137	0.748901
502	N	0.790126	0.233935	0.7619
503	H	0.780064	0.243998	0.79
504	H	0.809077	0.214987	0.764808
505	C	0.778423	0.037609	0.97069
506	C	0.750878	0.482524	0.969973
507	C	0.73652	0.453787	0.677546
508	C	0.750326	0.481385	0.719122
509	C	0.778099	0.036935	0.720634
510	C	0.792316	0.065382	0.678936
511	H	0.788272	0.057321	0.940374
512	H	0.741387	0.463549	0.939324
513	H	0.739931	0.460588	0.748897
514	N	0.790127	0.060991	0.761906
515	H	0.780066	0.040862	0.790007
516	H	0.809073	0.09889	0.764818
517	C	0.986457	0.24564	0.970686
518	C	0.541544	0.273183	0.969973
519	C	0.570275	0.287543	0.67755
520	C	0.542673	0.273739	0.719122
521	C	0.987125	0.245965	0.720627
522	C	0.958683	0.231748	0.678933
523	H	0.966749	0.235788	0.940367
524	H	0.560518	0.282672	0.939324
525	H	0.563471	0.284135	0.748901
526	N	0.963066	0.233935	0.761903
527	H	0.983191	0.243998	0.79
528	H	0.925165	0.214989	0.764808
529	C	0.77843	0.745636	0.304016
530	C	0.750887	0.773179	0.303306
531	H	0.788285	0.735784	0.273698
532	H	0.741401	0.782671	0.272658
533	C	0.778422	0.53761	0.304022
534	C	0.750878	0.98252	0.303306
535	H	0.788274	0.557322	0.273705
536	H	0.741388	0.963549	0.272656
537	C	0.986459	0.74564	0.304018
538	C	0.541545	0.773183	0.303306
539	H	0.966751	0.735788	0.2737
540	H	0.560519	0.782671	0.272657
541	C	0.625483	0.815148	0.343593
542	C	0.653546	0.870519	0.343698
543	C	0.708919	0.898583	0.343589
544	C	0.736228	0.870519	0.343705
545	C	0.708919	0.815148	0.343596
546	C	0.653545	0.787836	0.343705
547	H	0.776367	0.890587	0.343926
548	H	0.633475	0.747696	0.343932
549	H	0.633474	0.890587	0.343919
550	C	0.903409	0.70411	0.343987
551	C	0.875331	0.648734	0.344177
552	C	0.819954	0.620655	0.343997
553	C	0.792656	0.648734	0.34416
554	C	0.819954	0.70411	0.343983
555	C	0.87533	0.731406	0.344153
556	H	0.752523	0.628666	0.344785
557	H	0.895396	0.771538	0.344778
558	H	0.895397	0.628666	0.344795
559	C	0.77843	0.745636	0.637351
560	C	0.750887	0.773179	0.636641
561	C	0.736522	0.787542	0.344218
562	C	0.750319	0.773739	0.38579
563	C	0.778095	0.745965	0.387295
564	C	0.792317	0.731747	0.345597
565	H	0.788285	0.735784	0.607031
566	H	0.741401	0.782671	0.605992
567	H	0.739922	0.784135	0.415569
568	N	0.790128	0.733936	0.428567
569	H	0.780063	0.743999	0.456668
570	H	0.809079	0.714988	0.431472
571	C	0.778422	0.53761	0.637354
572	C	0.750878	0.98252	0.636641
573	C	0.736521	0.953787	0.344214
574	C	0.750326	0.981385	0.38579
575	C	0.778096	0.536933	0.387298
576	C	0.792313	0.565381	0.345604
577	H	0.788274	0.557322	0.607038
578	H	0.741388	0.963549	0.605988
579	H	0.73993	0.960585	0.415565
580	N	0.790129	0.560991	0.428574
581	H	0.780067	0.54086	0.456672
582	H	0.809076	0.598891	0.431482
583	C	0.986459	0.74564	0.637351
584	C	0.541545	0.773183	0.636641
585	C	0.570275	0.787542	0.344218
586	C	0.542675	0.773739	0.38579
587	C	0.987127	0.745965	0.387295
588	C	0.958684	0.731747	0.345597
589	H	0.966751	0.735788	0.607035
590	H	0.560519	0.782671	0.605992
591	H	0.563471	0.784135	0.415565
592	N	0.963068	0.733936	0.428567
593	H	0.983192	0.743995	0.456668
594	H	0.925166	0.714988	0.431476
595	C	0.625483	0.815148	0.676928
596	C	0.653546	0.870519	0.677033
597	C	0.708919	0.898583	0.676921
598	C	0.736228	0.870519	0.677037
599	C	0.708919	0.815148	0.676931
600	C	0.653545	0.787836	0.677037
601	H	0.776367	0.890587	0.677261
602	H	0.633475	0.747696	0.677264
603	H	0.633474	0.890587	0.677254
604	C	0.903409	0.70411	0.677322
605	C	0.875331	0.648734	0.677512
606	C	0.819954	0.620655	0.677332
607	C	0.792656	0.648734	0.677492
608	C	0.819954	0.70411	0.677319
609	C	0.87533	0.731406	0.677489
610	H	0.752523	0.628666	0.678117
611	H	0.895396	0.771538	0.67811
612	H	0.895397	0.628666	0.678127
613	C	0.77843	0.745636	0.970683
614	C	0.750887	0.773179	0.969973
615	C	0.736522	0.787542	0.67755
616	C	0.750319	0.773739	0.719122
617	C	0.778095	0.745965	0.720627
618	C	0.792317	0.731747	0.678929
619	H	0.788285	0.735784	0.940363
620	H	0.741401	0.782671	0.939324
621	H	0.739922	0.784135	0.748901
622	N	0.790128	0.733936	0.7619
623	H	0.780063	0.743999	0.79
624	H	0.809079	0.714988	0.764808
625	C	0.778422	0.53761	0.97069
626	C	0.750878	0.98252	0.969973
627	C	0.736521	0.953787	0.677546
628	C	0.750326	0.981385	0.719122
629	C	0.778096	0.536933	0.720634
630	C	0.792313	0.565381	0.678936
631	H	0.788274	0.557322	0.940374
632	H	0.741388	0.963549	0.939324
633	H	0.73993	0.960585	0.748897
634	N	0.790129	0.560991	0.761906
635	H	0.780067	0.54086	0.790007
636	H	0.809076	0.598891	0.764818
637	C	0.986459	0.74564	0.970686
638	C	0.541545	0.773183	0.969973
639	C	0.570275	0.787542	0.67755
640	C	0.542675	0.773739	0.719122
641	C	0.987127	0.745965	0.720627
642	C	0.958684	0.731747	0.678933
643	H	0.966751	0.735788	0.940367
644	H	0.560519	0.782671	0.939324
645	H	0.563471	0.784135	0.748901
646	N	0.963068	0.733936	0.761903
647	H	0.983192	0.743995	0.79
648	H	0.925166	0.714988	0.764808
