data_C174H102N36O12_2018-02-15_10:47:46
#******************************************
#
# CIF file created by Zeo++
# Zeo++ is an open source package to
# analyze microporous materials
#
#*******************************************

_cell_length_a		25.786   
_cell_length_b		25.7858   
_cell_length_c		29.429   
_cell_angle_alpha		90   
_cell_angle_beta		90   
_cell_angle_gamma		90.0373   

_symmetry_space_group_name_H-M		'P1'
_symmetry_Int_Tables_number		1
_symmetry_cell_setting		Monoclinic

loop_
_symmetry_equiv_pos_as_xyz
'+x,+y,+z'

loop_
_atom_site_label
_atom_site_type_symbol
_atom_site_fract_x
_atom_site_fract_y
_atom_site_fract_z
1	C	0.914454	0.873227	0.334124
2	C	0.875775	0.910337	0.33449
3	C	0.898847	0.959368	0.336121
4	N	0.950733	0.94975	0.337559
5	C	0.96247	0.898299	0.336034
6	C	0.011602	0.872646	0.335493
7	C	0.060148	0.899296	0.336056
8	N	0.069458	0.951096	0.336917
9	C	0.120851	0.96252	0.336284
10	C	0.146188	0.914696	0.335082
11	C	0.109063	0.876012	0.335363
12	C	0.145345	0.012128	0.335867
13	C	0.117523	0.060097	0.336508
14	N	0.065618	0.069649	0.337583
15	C	0.053884	0.121116	0.336779
16	C	0.101898	0.146257	0.335867
17	C	0.140572	0.10918	0.336041
18	C	0.004779	0.146794	0.336079
19	C	0.956247	0.120204	0.33629
20	N	0.946956	0.068408	0.337314
21	C	0.89558	0.056998	0.336475
22	C	0.870276	0.104856	0.334931
23	C	0.907398	0.143546	0.335099
24	C	0.871096	0.007371	0.33593
25	C	0.815355	0.005874	0.33185
26	C	0.78217	0.015927	0.035827
27	C	0.727582	0.015758	0.030763
28	C	0.703896	0.005552	0.321515
29	C	0.737539	0.995329	0.284404
30	C	0.791948	0.995577	0.289365
31	C	0.004074	0.202545	0.331966
32	C	0.013903	0.23569	0.036022
33	C	0.013996	0.290282	0.030958
34	C	0.004201	0.314004	0.321653
35	C	0.994213	0.280389	0.284466
36	C	0.9942	0.225984	0.289423
37	C	0.201119	0.013936	0.331839
38	C	0.224529	0.027632	0.290069
39	C	0.278878	0.031706	0.285927
40	C	0.312402	0.021572	0.323092
41	C	0.288897	0.006855	0.031358
42	C	0.234337	0.003302	0.035685
43	C	0.012576	0.816859	0.331389
44	C	0.02594	0.793319	0.289598
45	C	0.001912	0.783744	0.035309
46	C	0.005216	0.72916	0.031056
47	C	0.019749	0.705538	0.322798
48	C	0.029754	0.738952	0.285523
49	H	0.040559	0.72392	0.25473
50	H	0.034117	0.815839	0.261853
51	H	0.998333	0.706783	0.059132
52	H	0.992472	0.799334	0.066194
53	H	0.907821	0.834206	0.332329
54	H	0.837028	0.902092	0.333182
55	H	0.97652	0.976633	0.339009
56	H	0.039814	0.042737	0.337803
57	H	0.117177	0.837238	0.334647
58	H	0.185262	0.90825	0.33403
59	H	0.201936	0.03575	0.262364
60	H	0.293818	0.042635	0.255129
61	H	0.218842	0.993518	0.066529
62	H	0.311356	0.999797	0.059346
63	H	0.179315	0.117534	0.335453
64	H	0.108563	0.185312	0.334841
65	H	0.83122	0.111311	0.333479
66	H	0.89938	0.182331	0.333998
67	H	0.021466	0.220135	0.067315
68	H	0.021842	0.312652	0.05884
69	H	0.987151	0.20342	0.261469
70	H	0.986997	0.295299	0.252836
71	H	0.814537	0.988488	0.261442
72	H	0.72265	0.987872	0.252807
73	H	0.705196	0.023847	0.058575
74	H	0.797695	0.023932	0.067053
75	C	0.005179	0.367971	0.314542
76	C	0.366034	0.028807	0.317844
77	C	0.027011	0.651904	0.317665
78	C	0.649929	0.006393	0.314393
79	H	0.004892	0.380436	0.282516
80	H	0.377573	0.053752	0.294109
81	H	0.052	0.640371	0.293977
82	H	0.637453	0.005738	0.282374
83	C	0.005857	0.56441	0.338674
84	N	0.003432	0.538268	0.045502
85	C	0.003913	0.485623	0.049368
86	C	0.006313	0.454784	0.009876
87	N	0.007847	0.48088	0.302965
88	C	0.007885	0.533634	0.298537
89	H	0.001967	0.46906	0.080866
90	C	0.007018	0.554265	0.255064
91	O	0.03486	0.534607	0.226197
92	O	0.968015	0.576049	0.239809
93	H	0.942141	0.588311	0.25645
94	N	0.003537	0.61652	0.34097
95	N	0.005775	0.402752	0.012821
96	C	0.453509	0.007533	0.33874
97	N	0.479716	0.005245	0.045539
98	C	0.532365	0.005664	0.049328
99	C	0.563135	0.007875	0.009785
100	N	0.536978	0.009298	0.302902
101	C	0.484217	0.009379	0.298556
102	H	0.548981	0.003861	0.08081
103	C	0.463477	0.008414	0.255093
104	O	0.482867	0.036727	0.226434
105	O	0.441788	0.969241	0.240034
106	H	0.429699	0.943347	0.256765
107	N	0.401406	0.005311	0.341106
108	N	0.615167	0.007351	0.01268
109	C	0.914454	0.873227	0.667457
110	C	0.875775	0.910337	0.667824
111	C	0.898847	0.959368	0.669455
112	N	0.950733	0.94975	0.670893
113	C	0.96247	0.898299	0.669367
114	C	0.011602	0.872646	0.668827
115	C	0.060148	0.899296	0.669391
116	N	0.069458	0.951096	0.67025
117	C	0.120851	0.96252	0.669618
118	C	0.146188	0.914696	0.668416
119	C	0.109063	0.876012	0.668698
120	C	0.145345	0.012128	0.6692
121	C	0.117523	0.060097	0.669839
122	N	0.065618	0.069649	0.670916
123	C	0.053884	0.121116	0.670111
124	C	0.101898	0.146257	0.6692
125	C	0.140572	0.10918	0.669374
126	C	0.004779	0.146794	0.669411
127	C	0.956247	0.120204	0.669625
128	N	0.946956	0.068408	0.670648
129	C	0.89558	0.056998	0.669809
130	C	0.870276	0.104856	0.668263
131	C	0.907398	0.143546	0.668432
132	C	0.871096	0.007371	0.669265
133	C	0.815355	0.005874	0.665184
134	C	0.78217	0.015927	0.36916
135	C	0.727582	0.015758	0.364097
136	C	0.703896	0.005552	0.654847
137	C	0.737539	0.995329	0.617738
138	C	0.791948	0.995577	0.622699
139	C	0.004074	0.202545	0.6653
140	C	0.013903	0.23569	0.369357
141	C	0.013996	0.290282	0.36429
142	C	0.004201	0.314004	0.654987
143	C	0.994213	0.280389	0.617799
144	C	0.9942	0.225984	0.622756
145	C	0.201119	0.013936	0.665174
146	C	0.224529	0.027632	0.623402
147	C	0.278878	0.031706	0.61926
148	C	0.312402	0.021572	0.656424
149	C	0.288897	0.006855	0.364691
150	C	0.234337	0.003302	0.369017
151	C	0.012576	0.816859	0.664722
152	C	0.02594	0.793319	0.62293
153	C	0.001912	0.783744	0.368643
154	C	0.005216	0.72916	0.364389
155	C	0.019749	0.705538	0.656132
156	C	0.029754	0.738952	0.618856
157	H	0.040559	0.72392	0.588063
158	H	0.034117	0.815839	0.595185
159	H	0.998333	0.706783	0.392467
160	H	0.992472	0.799334	0.399528
161	H	0.907821	0.834206	0.665663
162	H	0.837028	0.902092	0.666516
163	H	0.97652	0.976633	0.672344
164	H	0.039814	0.042737	0.671137
165	H	0.117177	0.837238	0.667981
166	H	0.185262	0.90825	0.667362
167	H	0.201936	0.03575	0.595698
168	H	0.293818	0.042635	0.588464
169	H	0.218842	0.993518	0.399864
170	H	0.311356	0.999797	0.392681
171	H	0.179315	0.117534	0.668786
172	H	0.108563	0.185312	0.668174
173	H	0.83122	0.111311	0.666812
174	H	0.89938	0.182331	0.667332
175	H	0.021466	0.220135	0.400649
176	H	0.021842	0.312652	0.392174
177	H	0.987151	0.20342	0.594801
178	H	0.986997	0.295299	0.58617
179	H	0.814537	0.988488	0.594774
180	H	0.72265	0.987872	0.58614
181	H	0.705196	0.023847	0.391909
182	H	0.797695	0.023932	0.400387
183	C	0.005179	0.367971	0.647875
184	C	0.366034	0.028807	0.651177
185	C	0.027011	0.651904	0.650997
186	C	0.649929	0.006393	0.647725
187	H	0.004892	0.380436	0.615848
188	H	0.377573	0.053752	0.627442
189	H	0.052	0.640371	0.62731
190	H	0.637453	0.005738	0.615709
191	C	0.005857	0.56441	0.672007
192	N	0.003432	0.538268	0.378834
193	C	0.003913	0.485623	0.382701
194	C	0.006313	0.454784	0.343209
195	N	0.007847	0.48088	0.636298
196	C	0.007885	0.533634	0.63187
197	H	0.001967	0.46906	0.4142
198	C	0.007018	0.554265	0.588396
199	O	0.03486	0.534607	0.55953
200	O	0.968015	0.576049	0.573142
201	H	0.942141	0.588311	0.589782
202	N	0.003537	0.61652	0.674304
203	N	0.005775	0.402752	0.346155
204	C	0.453509	0.007533	0.672072
205	N	0.479716	0.005245	0.378871
206	C	0.532365	0.005664	0.38266
207	C	0.563135	0.007875	0.343117
208	N	0.536978	0.009298	0.636236
209	C	0.484217	0.009379	0.63189
210	H	0.548981	0.003861	0.414143
211	C	0.463477	0.008414	0.588426
212	O	0.482867	0.036727	0.559768
213	O	0.441788	0.969241	0.573366
214	H	0.429699	0.943347	0.590098
215	N	0.401406	0.005311	0.67444
216	N	0.615167	0.007351	0.346012
217	C	0.914454	0.873227	0.000792
218	C	0.875775	0.910337	0.001155
219	C	0.898847	0.959368	0.002786
220	N	0.950733	0.94975	0.004227
221	C	0.96247	0.898299	0.002701
222	C	0.011602	0.872646	0.002158
223	C	0.060148	0.899296	0.002722
224	N	0.069458	0.951096	0.003585
225	C	0.120851	0.96252	0.002949
226	C	0.146188	0.914696	0.00175
227	C	0.109063	0.876012	0.002029
228	C	0.145345	0.012128	0.002535
229	C	0.117523	0.060097	0.003174
230	N	0.065618	0.069649	0.004251
231	C	0.053884	0.121116	0.003446
232	C	0.101898	0.146257	0.002535
233	C	0.140572	0.10918	0.002708
234	C	0.004779	0.146794	0.002746
235	C	0.956247	0.120204	0.002956
236	N	0.946956	0.068408	0.003979
237	C	0.89558	0.056998	0.00314
238	C	0.870276	0.104856	0.001597
239	C	0.907398	0.143546	0.001767
240	C	0.871096	0.007371	0.002596
241	C	0.815355	0.005874	0.998515
242	C	0.78217	0.015927	0.702494
243	C	0.727582	0.015758	0.697428
244	C	0.703896	0.005552	0.988182
245	C	0.737539	0.995329	0.951072
246	C	0.791948	0.995577	0.956033
247	C	0.004074	0.202545	0.998634
248	C	0.013903	0.23569	0.702688
249	C	0.013996	0.290282	0.697625
250	C	0.004201	0.314004	0.988321
251	C	0.994213	0.280389	0.951133
252	C	0.9942	0.225984	0.956091
253	C	0.201119	0.013936	0.998505
254	C	0.224529	0.027632	0.956737
255	C	0.278878	0.031706	0.952594
256	C	0.312402	0.021572	0.989758
257	C	0.288897	0.006855	0.698026
258	C	0.234337	0.003302	0.702351
259	C	0.012576	0.816859	0.998056
260	C	0.02594	0.793319	0.956264
261	C	0.001912	0.783744	0.701974
262	C	0.005216	0.72916	0.697723
263	C	0.019749	0.705538	0.989466
264	C	0.029754	0.738952	0.95219
265	H	0.040559	0.72392	0.921397
266	H	0.034117	0.815839	0.928519
267	H	0.998333	0.706783	0.725798
268	H	0.992472	0.799334	0.732862
269	H	0.907821	0.834206	0.998998
270	H	0.837028	0.902092	0.999847
271	H	0.97652	0.976633	0.005675
272	H	0.039814	0.042737	0.004468
273	H	0.117177	0.837238	0.001315
274	H	0.185262	0.90825	0.000697
275	H	0.201936	0.03575	0.929033
276	H	0.293818	0.042635	0.921795
277	H	0.218842	0.993518	0.733195
278	H	0.311356	0.999797	0.726012
279	H	0.179315	0.117534	0.00212
280	H	0.108563	0.185312	0.001509
281	H	0.83122	0.111311	0.000146
282	H	0.89938	0.182331	0.000666
283	H	0.021466	0.220135	0.733983
284	H	0.021842	0.312652	0.725505
285	H	0.987151	0.20342	0.928136
286	H	0.986997	0.295299	0.919501
287	H	0.814537	0.988488	0.928108
288	H	0.72265	0.987872	0.919474
289	H	0.705196	0.023847	0.72524
290	H	0.797695	0.023932	0.733718
291	C	0.005179	0.367971	0.981209
292	C	0.366034	0.028807	0.984512
293	C	0.027011	0.651904	0.984332
294	C	0.649929	0.006393	0.981059
295	H	0.004892	0.380436	0.949183
296	H	0.377573	0.053752	0.960777
297	H	0.052	0.640371	0.960644
298	H	0.637453	0.005738	0.94904
299	C	0.005857	0.56441	0.005342
300	N	0.003432	0.538268	0.712168
301	C	0.003913	0.485623	0.716035
302	C	0.006313	0.454784	0.676544
303	N	0.007847	0.48088	0.969632
304	C	0.007885	0.533634	0.965204
305	H	0.001967	0.46906	0.747531
306	C	0.007018	0.554265	0.92173
307	O	0.03486	0.534607	0.892864
308	O	0.968015	0.576049	0.906477
309	H	0.942141	0.588311	0.923117
310	N	0.003537	0.61652	0.007639
311	N	0.005775	0.402752	0.679486
312	C	0.453509	0.007533	0.005406
313	N	0.479716	0.005245	0.712206
314	C	0.532365	0.005664	0.715994
315	C	0.563135	0.007875	0.676452
316	N	0.536978	0.009298	0.969567
317	C	0.484217	0.009379	0.965221
318	H	0.548981	0.003861	0.747477
319	C	0.463477	0.008414	0.921761
320	O	0.482867	0.036727	0.893099
321	O	0.441788	0.969241	0.906701
322	H	0.429699	0.943347	0.923433
323	N	0.401406	0.005311	0.007775
324	N	0.615167	0.007351	0.679347
