data_C192H150N36O6_2018-02-15_10:47:48
#******************************************
#
# CIF file created by Zeo++
# Zeo++ is an open source package to
# analyze microporous materials
#
#*******************************************

_cell_length_a		25.6442   
_cell_length_b		25.6441   
_cell_length_c		29.2378   
_cell_angle_alpha		90   
_cell_angle_beta		90   
_cell_angle_gamma		90.0372   

_symmetry_space_group_name_H-M		'P1'
_symmetry_Int_Tables_number		1
_symmetry_cell_setting		Monoclinic

loop_
_symmetry_equiv_pos_as_xyz
'+x,+y,+z'

loop_
_atom_site_label
_atom_site_type_symbol
_atom_site_fract_x
_atom_site_fract_y
_atom_site_fract_z
1	C	0.917086	0.87572	0.336191
2	C	0.878689	0.91346	0.337468
3	C	0.902636	0.96243	0.338195
4	N	0.954653	0.952311	0.337862
5	C	0.965647	0.900486	0.336711
6	C	0.014721	0.874321	0.33566
7	C	0.063882	0.900178	0.335858
8	N	0.073727	0.952058	0.337212
9	C	0.125445	0.962773	0.335981
10	C	0.150421	0.914435	0.333984
11	C	0.112654	0.876013	0.334238
12	C	0.15037	0.012403	0.33591
13	C	0.123279	0.060981	0.33706
14	N	0.071261	0.071054	0.337512
15	C	0.060255	0.122872	0.338708
16	C	0.108773	0.147701	0.339125
17	C	0.147197	0.109965	0.338171
18	C	0.011197	0.149034	0.339385
19	C	0.962004	0.123247	0.339051
20	N	0.952213	0.071352	0.338091
21	C	0.900499	0.060633	0.339208
22	C	0.875433	0.108936	0.340577
23	C	0.913201	0.14738	0.340608
24	C	0.875594	0.01103	0.339266
25	C	0.819814	0.009903	0.342902
26	C	0.795768	0.012828	0.052981
27	C	0.74125	0.008222	0.057486
28	C	0.708891	0.001028	0.352092
29	C	0.732969	0.999156	0.308542
30	C	0.787639	0.003375	0.30402
31	C	0.011038	0.204809	0.343135
32	C	0.015569	0.228755	0.053152
33	C	0.011464	0.283289	0.057838
34	C	0.003233	0.315761	0.35268
35	C	0.999763	0.291763	0.30917
36	C	0.003475	0.237089	0.304472
37	C	0.206109	0.013484	0.331488
38	C	0.229063	0.024479	0.288643
39	C	0.28364	0.024884	0.28335
40	C	0.317524	0.014183	0.320523
41	C	0.294221	0.003227	0.030125
42	C	0.239479	0.002919	0.035539
43	C	0.014779	0.818588	0.33113
44	C	0.023497	0.795554	0.287922
45	C	0.0061	0.785298	0.035612
46	C	0.006061	0.730541	0.030275
47	C	0.01484	0.707148	0.32033
48	C	0.023615	0.740965	0.282714
49	H	0.030127	0.726123	0.250698
50	H	0.029836	0.818479	0.259793
51	H	0.999253	0.707877	0.05845
52	H	0.999547	0.800803	0.067349
53	H	0.909925	0.836538	0.335161
54	H	0.839607	0.905645	0.337416
55	H	0.980902	0.979007	0.338466
56	H	0.045021	0.044359	0.336629
57	H	0.120205	0.83692	0.332862
58	H	0.189618	0.907533	0.332357
59	H	0.206083	0.032054	0.260788
60	H	0.298423	0.032937	0.251581
61	H	0.224038	0.99459	0.066982
62	H	0.316942	0.994913	0.05795
63	H	0.186282	0.117759	0.338514
64	H	0.115823	0.186921	0.339906
65	H	0.836189	0.115726	0.341784
66	H	0.90563	0.186469	0.341984
67	H	0.020384	0.206447	0.081882
68	H	0.013541	0.299027	0.089988
69	H	0.999299	0.22082	0.272715
70	H	0.992676	0.313674	0.280629
71	H	0.80398	0.000447	0.272187
72	H	0.711139	0.992835	0.279811
73	H	0.725446	0.009178	0.089652
74	H	0.817988	0.016948	0.081849
75	C	0.994311	0.368801	0.359158
76	C	0.371533	0.013968	0.313257
77	C	0.014495	0.653108	0.313199
78	C	0.655844	0.991782	0.358279
79	H	0.970175	0.379071	0.384211
80	H	0.384208	0.016211	0.281116
81	H	0.015664	0.640349	0.28104
82	H	0.645537	0.966887	0.382751
83	C	0.01476	0.488002	0.296707
84	C	0.013924	0.45697	0.003943
85	C	0.014409	0.483943	0.046423
86	N	0.013725	0.537054	0.048167
87	C	0.013313	0.566543	0.342885
88	N	0.014083	0.540849	0.302307
89	C	0.015547	0.467276	0.248013
90	C	0.017927	0.512289	0.211464
91	H	0.984149	0.538057	0.214425
92	H	0.018323	0.496811	0.176685
93	H	0.05311	0.535849	0.215915
94	C	0.964527	0.435721	0.23822
95	H	0.930172	0.460195	0.243458
96	H	0.960921	0.401893	0.260491
97	H	0.963858	0.421547	0.202985
98	C	0.064722	0.432325	0.239725
99	H	0.100267	0.453441	0.248824
100	H	0.067674	0.420825	0.203838
101	H	0.06353	0.396469	0.259669
102	O	0.017685	0.457843	0.0866
103	H	0.014251	0.554275	0.077902
104	N	0.016436	0.404716	0.001826
105	N	0.013359	0.618718	0.345395
106	C	0.536605	0.013967	0.296484
107	C	0.567708	0.012173	0.003656
108	C	0.540825	0.011611	0.046176
109	N	0.487717	0.010972	0.047985
110	C	0.458155	0.011557	0.342748
111	N	0.48377	0.013235	0.30215
112	C	0.557246	0.015836	0.247786
113	C	0.512182	0.019032	0.211343
114	H	0.486394	0.985176	0.213737
115	H	0.527597	0.020253	0.176555
116	H	0.488648	0.054087	0.216451
117	C	0.588731	0.965051	0.237077
118	H	0.564255	0.930575	0.24183
119	H	0.622651	0.961003	0.259184
120	H	0.60277	0.965129	0.201796
121	C	0.592249	0.065188	0.240305
122	H	0.57118	0.100525	0.250008
123	H	0.603732	0.068921	0.204468
124	H	0.628112	0.063568	0.260209
125	O	0.567017	0.013827	0.086365
126	H	0.470551	0.010784	0.077749
127	N	0.619962	0.014722	0.001542
128	N	0.405991	0.01165	0.345344
129	C	0.917086	0.87572	0.669524
130	C	0.878689	0.91346	0.670803
131	C	0.902636	0.96243	0.671528
132	N	0.954653	0.952311	0.671196
133	C	0.965647	0.900486	0.670044
134	C	0.014721	0.874321	0.668993
135	C	0.063882	0.900178	0.669192
136	N	0.073727	0.952058	0.670546
137	C	0.125445	0.962773	0.669315
138	C	0.150421	0.914435	0.667318
139	C	0.112654	0.876013	0.667571
140	C	0.15037	0.012403	0.669243
141	C	0.123279	0.060981	0.670392
142	N	0.071261	0.071054	0.670844
143	C	0.060255	0.122872	0.672041
144	C	0.108773	0.147701	0.672458
145	C	0.147197	0.109965	0.671504
146	C	0.011197	0.149034	0.672718
147	C	0.962004	0.123247	0.672383
148	N	0.952213	0.071352	0.671425
149	C	0.900499	0.060633	0.67254
150	C	0.875433	0.108936	0.673912
151	C	0.913201	0.14738	0.673943
152	C	0.875594	0.01103	0.672598
153	C	0.819814	0.009903	0.676234
154	C	0.795768	0.012828	0.386315
155	C	0.74125	0.008222	0.390819
156	C	0.708891	0.001028	0.685424
157	C	0.732969	0.999156	0.641874
158	C	0.787639	0.003375	0.637353
159	C	0.011038	0.204809	0.676467
160	C	0.015569	0.228755	0.386486
161	C	0.011464	0.283289	0.391172
162	C	0.003233	0.315761	0.686013
163	C	0.999763	0.291763	0.642504
164	C	0.003475	0.237089	0.637804
165	C	0.206109	0.013484	0.664821
166	C	0.229063	0.024479	0.621976
167	C	0.28364	0.024884	0.616685
168	C	0.317524	0.014183	0.653856
169	C	0.294221	0.003227	0.363458
170	C	0.239479	0.002919	0.368872
171	C	0.014779	0.818588	0.664462
172	C	0.023497	0.795554	0.621257
173	C	0.0061	0.785298	0.368947
174	C	0.006061	0.730541	0.363608
175	C	0.01484	0.707148	0.653664
176	C	0.023615	0.740965	0.616048
177	H	0.030127	0.726123	0.584032
178	H	0.029836	0.818479	0.593126
179	H	0.999253	0.707877	0.391784
180	H	0.999547	0.800803	0.400683
181	H	0.909925	0.836538	0.668494
182	H	0.839607	0.905645	0.670748
183	H	0.980902	0.979007	0.671798
184	H	0.045021	0.044359	0.669961
185	H	0.120205	0.83692	0.666196
186	H	0.189618	0.907533	0.66569
187	H	0.206083	0.032054	0.594121
188	H	0.298423	0.032937	0.584914
189	H	0.224038	0.99459	0.400314
190	H	0.316942	0.994913	0.391285
191	H	0.186282	0.117759	0.671849
192	H	0.115823	0.186921	0.673238
193	H	0.836189	0.115726	0.675116
194	H	0.90563	0.186469	0.675317
195	H	0.020384	0.206447	0.415216
196	H	0.013541	0.299027	0.423322
197	H	0.999299	0.22082	0.606048
198	H	0.992676	0.313674	0.613962
199	H	0.80398	0.000447	0.605521
200	H	0.711139	0.992835	0.613145
201	H	0.725446	0.009178	0.422987
202	H	0.817988	0.016948	0.415182
203	C	0.994311	0.368801	0.69249
204	C	0.371533	0.013968	0.646591
205	C	0.014495	0.653108	0.646533
206	C	0.655844	0.991782	0.691615
207	H	0.970175	0.379071	0.717544
208	H	0.384208	0.016211	0.614448
209	H	0.015664	0.640349	0.614372
210	H	0.645537	0.966887	0.716087
211	C	0.01476	0.488002	0.63004
212	C	0.013924	0.45697	0.337278
213	C	0.014409	0.483943	0.379755
214	N	0.013725	0.537054	0.381499
215	C	0.013313	0.566543	0.67622
216	N	0.014083	0.540849	0.635639
217	C	0.015547	0.467276	0.581347
218	C	0.017927	0.512289	0.544798
219	H	0.984149	0.538057	0.54776
220	H	0.018323	0.496811	0.510018
221	H	0.05311	0.535849	0.549248
222	C	0.964527	0.435721	0.571555
223	H	0.930172	0.460195	0.576791
224	H	0.960921	0.401893	0.593824
225	H	0.963858	0.421547	0.536319
226	C	0.064722	0.432325	0.573059
227	H	0.100267	0.453441	0.582157
228	H	0.067674	0.420825	0.537171
229	H	0.06353	0.396469	0.593003
230	O	0.017685	0.457843	0.419932
231	H	0.014251	0.554275	0.411235
232	N	0.016436	0.404716	0.33516
233	N	0.013359	0.618718	0.678727
234	C	0.536605	0.013967	0.629818
235	C	0.567708	0.012173	0.33699
236	C	0.540825	0.011611	0.379509
237	N	0.487717	0.010972	0.381318
238	C	0.458155	0.011557	0.67608
239	N	0.48377	0.013235	0.635482
240	C	0.557246	0.015836	0.581118
241	C	0.512182	0.019032	0.544675
242	H	0.486394	0.985176	0.547069
243	H	0.527597	0.020253	0.509888
244	H	0.488648	0.054087	0.549785
245	C	0.588731	0.965051	0.570412
246	H	0.564255	0.930575	0.575163
247	H	0.622651	0.961003	0.592517
248	H	0.60277	0.965129	0.535129
249	C	0.592249	0.065188	0.573637
250	H	0.57118	0.100525	0.583341
251	H	0.603732	0.068921	0.5378
252	H	0.628112	0.063568	0.593543
253	O	0.567017	0.013827	0.4197
254	H	0.470551	0.010784	0.411081
255	N	0.619962	0.014722	0.334875
256	N	0.405991	0.01165	0.678676
257	C	0.917086	0.87572	0.002859
258	C	0.878689	0.91346	0.004135
259	C	0.902636	0.96243	0.00486
260	N	0.954653	0.952311	0.004528
261	C	0.965647	0.900486	0.003379
262	C	0.014721	0.874321	0.002326
263	C	0.063882	0.900178	0.002524
264	N	0.073727	0.952058	0.003878
265	C	0.125445	0.962773	0.002647
266	C	0.150421	0.914435	0.00065
267	C	0.112654	0.876013	0.000906
268	C	0.15037	0.012403	0.002575
269	C	0.123279	0.060981	0.003728
270	N	0.071261	0.071054	0.004179
271	C	0.060255	0.122872	0.005376
272	C	0.108773	0.147701	0.00579
273	C	0.147197	0.109965	0.004836
274	C	0.011197	0.149034	0.00605
275	C	0.962004	0.123247	0.005719
276	N	0.952213	0.071352	0.004757
277	C	0.900499	0.060633	0.005876
278	C	0.875433	0.108936	0.007244
279	C	0.913201	0.14738	0.007275
280	C	0.875594	0.01103	0.005934
281	C	0.819814	0.009903	0.009566
282	C	0.795768	0.012828	0.719647
283	C	0.74125	0.008222	0.724152
284	C	0.708891	0.001028	0.018758
285	C	0.732969	0.999156	0.97521
286	C	0.787639	0.003375	0.970685
287	C	0.011038	0.204809	0.009799
288	C	0.015569	0.228755	0.719818
289	C	0.011464	0.283289	0.724504
290	C	0.003233	0.315761	0.019346
291	C	0.999763	0.291763	0.975836
292	C	0.003475	0.237089	0.971137
293	C	0.206109	0.013484	0.998153
294	C	0.229063	0.024479	0.955311
295	C	0.28364	0.024884	0.950017
296	C	0.317524	0.014183	0.987191
297	C	0.294221	0.003227	0.696793
298	C	0.239479	0.002919	0.702207
299	C	0.014779	0.818588	0.997797
300	C	0.023497	0.795554	0.95459
301	C	0.0061	0.785298	0.702279
302	C	0.006061	0.730541	0.69694
303	C	0.01484	0.707148	0.986996
304	C	0.023615	0.740965	0.94938
305	H	0.030127	0.726123	0.917364
306	H	0.029836	0.818479	0.926462
307	H	0.999253	0.707877	0.725116
308	H	0.999547	0.800803	0.734015
309	H	0.909925	0.836538	0.001826
310	H	0.839607	0.905645	0.004084
311	H	0.980902	0.979007	0.005134
312	H	0.045021	0.044359	0.003297
313	H	0.120205	0.83692	0.999528
314	H	0.189618	0.907533	0.999025
315	H	0.206083	0.032054	0.927453
316	H	0.298423	0.032937	0.918246
317	H	0.224038	0.99459	0.73365
318	H	0.316942	0.994913	0.724617
319	H	0.186282	0.117759	0.005182
320	H	0.115823	0.186921	0.006574
321	H	0.836189	0.115726	0.008451
322	H	0.90563	0.186469	0.00865
323	H	0.020384	0.206447	0.748548
324	H	0.013541	0.299027	0.756654
325	H	0.999299	0.22082	0.939383
326	H	0.992676	0.313674	0.947294
327	H	0.80398	0.000447	0.938853
328	H	0.711139	0.992835	0.946477
329	H	0.725446	0.009178	0.756319
330	H	0.817988	0.016948	0.748517
331	C	0.994311	0.368801	0.025824
332	C	0.371533	0.013968	0.979923
333	C	0.014495	0.653108	0.979865
334	C	0.655844	0.991782	0.024947
335	H	0.970175	0.379071	0.050877
336	H	0.384208	0.016211	0.947783
337	H	0.015664	0.640349	0.947708
338	H	0.645537	0.966887	0.049419
339	C	0.01476	0.488002	0.963373
340	C	0.013924	0.45697	0.670611
341	C	0.014409	0.483943	0.713091
342	N	0.013725	0.537054	0.714835
343	C	0.013313	0.566543	0.009553
344	N	0.014083	0.540849	0.968972
345	C	0.015547	0.467276	0.914679
346	C	0.017927	0.512289	0.87813
347	H	0.984149	0.538057	0.881092
348	H	0.018323	0.496811	0.843353
349	H	0.05311	0.535849	0.882583
350	C	0.964527	0.435721	0.904887
351	H	0.930172	0.460195	0.910123
352	H	0.960921	0.401893	0.927156
353	H	0.963858	0.421547	0.869652
354	C	0.064722	0.432325	0.906392
355	H	0.100267	0.453441	0.915489
356	H	0.067674	0.420825	0.870507
357	H	0.06353	0.396469	0.926335
358	O	0.017685	0.457843	0.753268
359	H	0.014251	0.554275	0.744567
360	N	0.016436	0.404716	0.668494
361	N	0.013359	0.618718	0.012063
362	C	0.536605	0.013967	0.96315
363	C	0.567708	0.012173	0.670324
364	C	0.540825	0.011611	0.712841
365	N	0.487717	0.010972	0.71465
366	C	0.458155	0.011557	0.009416
367	N	0.48377	0.013235	0.968818
368	C	0.557246	0.015836	0.914453
369	C	0.512182	0.019032	0.878011
370	H	0.486394	0.985176	0.880405
371	H	0.527597	0.020253	0.843223
372	H	0.488648	0.054087	0.883117
373	C	0.588731	0.965051	0.903744
374	H	0.564255	0.930575	0.908495
375	H	0.622651	0.961003	0.925849
376	H	0.60277	0.965129	0.868461
377	C	0.592249	0.065188	0.906973
378	H	0.57118	0.100525	0.916676
379	H	0.603732	0.068921	0.871136
380	H	0.628112	0.063568	0.926875
381	O	0.567017	0.013827	0.753032
382	H	0.470551	0.010784	0.744416
383	N	0.619962	0.014722	0.668207
384	N	0.405991	0.01165	0.012012
