data_C144H135N45_2018-02-15_10:33:24
#******************************************
#
# CIF file created by Zeo++
# Zeo++ is an open source package to
# analyze microporous materials
#
#*******************************************

_cell_length_a		29.0775   
_cell_length_b		29.0776   
_cell_length_c		30.0338   
_cell_angle_alpha		90   
_cell_angle_beta		90   
_cell_angle_gamma		120   

_symmetry_space_group_name_H-M		'P1'
_symmetry_Int_Tables_number		1
_symmetry_cell_setting		Monoclinic

loop_
_symmetry_equiv_pos_as_xyz
'+x,+y,+z'

loop_
_atom_site_label
_atom_site_type_symbol
_atom_site_fract_x
_atom_site_fract_y
_atom_site_fract_z
1	C	0.353385	0.633263	0.050635
2	N	0.299908	0.612796	0.050353
3	C	0.278808	0.645189	0.050538
4	N	0.311821	0.698667	0.050332
5	C	0.365317	0.719774	0.050594
6	N	0.385778	0.686758	0.050422
7	N	0.223251	0.622395	0.048452
8	H	0.212499	0.648092	0.062065
9	N	0.398094	0.775333	0.048542
10	H	0.434604	0.786048	0.062
11	N	0.376195	0.600518	0.048551
12	H	0.350535	0.564091	0.062219
13	C	0.645964	0.366565	0.961358
14	N	0.699264	0.385813	0.961095
15	C	0.719503	0.352652	0.961368
16	N	0.685447	0.299349	0.961125
17	C	0.632051	0.279113	0.961391
18	N	0.612804	0.313169	0.961122
19	N	0.775101	0.37422	0.960522
20	H	0.783496	0.344451	0.954113
21	N	0.598013	0.223514	0.960579
22	H	0.559844	0.215119	0.954189
23	N	0.624397	0.400597	0.960516
24	H	0.65416	0.438759	0.95409
25	C	0.421236	0.565739	0.335902
26	C	0.471129	0.589351	0.024038
27	C	0.502668	0.564798	0.024825
28	C	0.483053	0.514778	0.003245
29	C	0.433314	0.491324	0.314765
30	C	0.402767	0.516426	0.314483
31	H	0.418527	0.455314	0.299191
32	H	0.366848	0.498306	0.29856
33	C	0.511463	0.486869	0.002747
34	C	0.518196	0.464484	0.042205
35	C	0.546349	0.436789	0.041512
36	C	0.568659	0.43086	0.001558
37	C	0.561008	0.452737	0.295357
38	C	0.532729	0.480297	0.295903
39	H	0.502603	0.468121	0.071681
40	H	0.55063	0.421012	0.070633
41	H	0.575582	0.448639	0.265581
42	H	0.48488	0.625452	0.039195
43	H	0.528145	0.495899	0.266789
44	N	0.550853	0.590622	0.04533
45	H	0.56358	0.625079	0.059368
46	H	0.574926	0.576584	0.045441
47	C	0.597829	0.400863	0.002807
48	H	0.56892	0.360013	0.012157
49	H	0.627863	0.417668	0.029151
50	C	0.389757	0.593215	0.335709
51	H	0.353286	0.571159	0.316163
52	H	0.413899	0.631762	0.319524
53	C	0.432704	0.855216	0.335985
54	C	0.409242	0.881537	0.024292
55	C	0.433843	0.937628	0.025095
56	C	0.483782	0.968003	0.00338
57	C	0.507097	0.941675	0.314749
58	C	0.481937	0.886024	0.314438
59	H	0.54304	0.962869	0.299072
60	H	0.49995	0.868198	0.298391
61	C	0.511724	0.024324	0.002868
62	C	0.534184	0.05346	0.042304
63	C	0.561898	0.109308	0.041593
64	C	0.567771	0.137532	0.001641
65	C	0.545835	0.107987	0.295457
66	C	0.518243	0.05215	0.296025
67	H	0.530594	0.034243	0.071778
68	H	0.577731	0.129376	0.070699
69	H	0.549889	0.126646	0.265683
70	H	0.373195	0.859207	0.039543
71	H	0.502594	0.031955	0.266923
72	N	0.40814	0.960025	0.045745
73	H	0.373648	0.938307	0.059735
74	H	0.422117	0.998128	0.045722
75	C	0.597799	0.196701	0.002866
76	H	0.638657	0.208625	0.012168
77	H	0.581045	0.209957	0.029232
78	C	0.405147	0.796257	0.335735
79	H	0.427044	0.781814	0.316002
80	H	0.366514	0.781922	0.319727
81	C	0.143414	0.577299	0.335835
82	C	0.117118	0.527434	0.02401
83	C	0.061026	0.495919	0.024815
84	C	0.030631	0.51554	0.003221
85	C	0.056931	0.565258	0.31471
86	C	0.112581	0.595776	0.314405
87	H	0.035718	0.580047	0.299124
88	H	0.13039	0.631679	0.298458
89	C	0.974314	0.487147	0.00273
90	C	0.945201	0.480444	0.042186
91	C	0.889354	0.4523	0.041498
92	C	0.861106	0.429975	0.00155
93	C	0.890629	0.437599	0.295349
94	C	0.946468	0.465866	0.295891
95	H	0.964437	0.496046	0.071658
96	H	0.869303	0.448039	0.070619
97	H	0.871953	0.423014	0.265578
98	H	0.139461	0.513678	0.039177
99	H	0.966647	0.470428	0.266778
100	N	0.03865	0.447749	0.045348
101	H	0.060375	0.435018	0.059394
102	H	0.000537	0.423693	0.045471
103	C	0.801937	0.400811	0.002803
104	H	0.790006	0.429733	0.012133
105	H	0.78871	0.370796	0.029162
106	C	0.20237	0.60875	0.335619
107	H	0.216798	0.645189	0.316024
108	H	0.216753	0.584562	0.319484
109	C	0.353385	0.633263	0.383968
110	N	0.299908	0.612796	0.383685
111	C	0.278808	0.645189	0.383871
112	N	0.311821	0.698667	0.383665
113	C	0.365317	0.719774	0.383928
114	N	0.385778	0.686758	0.383755
115	N	0.223251	0.622395	0.381784
116	H	0.212499	0.648092	0.395398
117	N	0.398094	0.775333	0.381877
118	H	0.434604	0.786048	0.395332
119	N	0.376195	0.600518	0.381884
120	H	0.350535	0.564091	0.395551
121	C	0.645964	0.366565	0.294693
122	N	0.699264	0.385813	0.294429
123	C	0.719503	0.352652	0.294703
124	N	0.685447	0.299349	0.29446
125	C	0.632051	0.279113	0.294727
126	N	0.612804	0.313169	0.294455
127	N	0.775101	0.37422	0.293857
128	H	0.783496	0.344451	0.287447
129	N	0.598013	0.223514	0.293914
130	H	0.559844	0.215119	0.287524
131	N	0.624397	0.400597	0.293851
132	H	0.65416	0.438759	0.287424
133	C	0.421236	0.565739	0.669233
134	C	0.471129	0.589351	0.357371
135	C	0.502668	0.564798	0.358157
136	C	0.483053	0.514778	0.336578
137	C	0.433314	0.491324	0.648097
138	C	0.402767	0.516426	0.647818
139	H	0.418527	0.455314	0.632525
140	H	0.366848	0.498306	0.631892
141	C	0.511463	0.486869	0.336082
142	C	0.518196	0.464484	0.375537
143	C	0.546349	0.436789	0.374845
144	C	0.568659	0.43086	0.33489
145	C	0.561008	0.452737	0.628689
146	C	0.532729	0.480297	0.629235
147	H	0.502603	0.468121	0.405014
148	H	0.55063	0.421012	0.403965
149	H	0.575582	0.448639	0.598916
150	H	0.48488	0.625452	0.372527
151	H	0.528145	0.495899	0.600121
152	N	0.550853	0.590622	0.378664
153	H	0.56358	0.625079	0.392701
154	H	0.574926	0.576584	0.378774
155	C	0.597829	0.400863	0.336138
156	H	0.56892	0.360013	0.345488
157	H	0.627863	0.417668	0.362482
158	C	0.389757	0.593215	0.66904
159	H	0.353286	0.571159	0.649496
160	H	0.413899	0.631762	0.652859
161	C	0.432704	0.855216	0.669317
162	C	0.409242	0.881537	0.357624
163	C	0.433843	0.937628	0.358427
164	C	0.483782	0.968003	0.336714
165	C	0.507097	0.941675	0.648084
166	C	0.481937	0.886024	0.647771
167	H	0.54304	0.962869	0.632405
168	H	0.49995	0.868198	0.631722
169	C	0.511724	0.024324	0.336202
170	C	0.534184	0.05346	0.375637
171	C	0.561898	0.109308	0.374925
172	C	0.567771	0.137532	0.334973
173	C	0.545835	0.107987	0.628789
174	C	0.518243	0.05215	0.629358
175	H	0.530594	0.034243	0.405111
176	H	0.577731	0.129376	0.404032
177	H	0.549889	0.126646	0.599016
178	H	0.373195	0.859207	0.372877
179	H	0.502594	0.031955	0.600254
180	N	0.40814	0.960025	0.379077
181	H	0.373648	0.938307	0.393068
182	H	0.422117	0.998128	0.379053
183	C	0.597799	0.196701	0.336198
184	H	0.638657	0.208625	0.345501
185	H	0.581045	0.209957	0.362565
186	C	0.405147	0.796257	0.669067
187	H	0.427044	0.781814	0.649336
188	H	0.366514	0.781922	0.653058
189	C	0.143414	0.577299	0.669167
190	C	0.117118	0.527434	0.357344
191	C	0.061026	0.495919	0.358147
192	C	0.030631	0.51554	0.336555
193	C	0.056931	0.565258	0.648044
194	C	0.112581	0.595776	0.647738
195	H	0.035718	0.580047	0.632458
196	H	0.13039	0.631679	0.631792
197	C	0.974314	0.487147	0.336062
198	C	0.945201	0.480444	0.375517
199	C	0.889354	0.4523	0.374831
200	C	0.861106	0.429975	0.334883
201	C	0.890629	0.437599	0.628682
202	C	0.946468	0.465866	0.629225
203	H	0.964437	0.496046	0.404991
204	H	0.869303	0.448039	0.403952
205	H	0.871953	0.423014	0.598909
206	H	0.139461	0.513678	0.372511
207	H	0.966647	0.470428	0.600111
208	N	0.03865	0.447749	0.37868
209	H	0.060375	0.435018	0.392728
210	H	0.000537	0.423693	0.378804
211	C	0.801937	0.400811	0.336135
212	H	0.790006	0.429733	0.345465
213	H	0.78871	0.370796	0.362495
214	C	0.20237	0.60875	0.66895
215	H	0.216798	0.645189	0.649356
216	H	0.216753	0.584562	0.652815
217	C	0.353385	0.633263	0.717303
218	N	0.299908	0.612796	0.71702
219	C	0.278808	0.645189	0.717203
220	N	0.311821	0.698667	0.717
221	C	0.365317	0.719774	0.717259
222	N	0.385778	0.686758	0.71709
223	N	0.223251	0.622395	0.715119
224	H	0.212499	0.648092	0.72873
225	N	0.398094	0.775333	0.715208
226	H	0.434604	0.786048	0.728667
227	N	0.376195	0.600518	0.715215
228	H	0.350535	0.564091	0.728883
229	C	0.645964	0.366565	0.628027
230	N	0.699264	0.385813	0.62776
231	C	0.719503	0.352652	0.628037
232	N	0.685447	0.299349	0.627793
233	C	0.632051	0.279113	0.62806
234	N	0.612804	0.313169	0.627787
235	N	0.775101	0.37422	0.627191
236	H	0.783496	0.344451	0.620781
237	N	0.598013	0.223514	0.627247
238	H	0.559844	0.215119	0.620858
239	N	0.624397	0.400597	0.627184
240	H	0.65416	0.438759	0.620758
241	C	0.421236	0.565739	0.002568
242	C	0.471129	0.589351	0.690703
243	C	0.502668	0.564798	0.691492
244	C	0.483053	0.514778	0.669909
245	C	0.433314	0.491324	0.981432
246	C	0.402767	0.516426	0.981149
247	H	0.418527	0.455314	0.965856
248	H	0.366848	0.498306	0.965227
249	C	0.511463	0.486869	0.669413
250	C	0.518196	0.464484	0.708872
251	C	0.546349	0.436789	0.708176
252	C	0.568659	0.43086	0.668225
253	C	0.561008	0.452737	0.962024
254	C	0.532729	0.480297	0.96257
255	H	0.502603	0.468121	0.738346
256	H	0.55063	0.421012	0.7373
257	H	0.575582	0.448639	0.932247
258	H	0.48488	0.625452	0.705862
259	H	0.528145	0.495899	0.933456
260	N	0.550853	0.590622	0.711995
261	H	0.56358	0.625079	0.726033
262	H	0.574926	0.576584	0.712105
263	C	0.597829	0.400863	0.669473
264	H	0.56892	0.360013	0.678823
265	H	0.627863	0.417668	0.695817
266	C	0.389757	0.593215	0.002374
267	H	0.353286	0.571159	0.982831
268	H	0.413899	0.631762	0.98619
269	C	0.432704	0.855216	0.002651
270	C	0.409242	0.881537	0.690959
271	C	0.433843	0.937628	0.691761
272	C	0.483782	0.968003	0.670046
273	C	0.507097	0.941675	0.981415
274	C	0.481937	0.886024	0.981103
275	H	0.54304	0.962869	0.96574
276	H	0.49995	0.868198	0.965057
277	C	0.511724	0.024324	0.669533
278	C	0.534184	0.05346	0.708969
279	C	0.561898	0.109308	0.70826
280	C	0.567771	0.137532	0.668308
281	C	0.545835	0.107987	0.962124
282	C	0.518243	0.05215	0.96269
283	H	0.530594	0.034243	0.738442
284	H	0.577731	0.129376	0.737363
285	H	0.549889	0.126646	0.932347
286	H	0.373195	0.859207	0.706209
287	H	0.502594	0.031955	0.933589
288	N	0.40814	0.960025	0.712412
289	H	0.373648	0.938307	0.726402
290	H	0.422117	0.998128	0.712388
291	C	0.597799	0.196701	0.669533
292	H	0.638657	0.208625	0.678833
293	H	0.581045	0.209957	0.695897
294	C	0.405147	0.796257	0.002402
295	H	0.427044	0.781814	0.982667
296	H	0.366514	0.781922	0.986393
297	C	0.143414	0.577299	0.002502
298	C	0.117118	0.527434	0.690676
299	C	0.061026	0.495919	0.691482
300	C	0.030631	0.51554	0.669886
301	C	0.056931	0.565258	0.981376
302	C	0.112581	0.595776	0.981073
303	H	0.035718	0.580047	0.96579
304	H	0.13039	0.631679	0.965124
305	C	0.974314	0.487147	0.669397
306	C	0.945201	0.480444	0.708852
307	C	0.889354	0.4523	0.708163
308	C	0.861106	0.429975	0.668215
309	C	0.890629	0.437599	0.962014
310	C	0.946468	0.465866	0.962557
311	H	0.964437	0.496046	0.738326
312	H	0.869303	0.448039	0.737284
313	H	0.871953	0.423014	0.932244
314	H	0.139461	0.513678	0.705842
315	H	0.966647	0.470428	0.933443
316	N	0.03865	0.447749	0.712015
317	H	0.060375	0.435018	0.72606
318	H	0.000537	0.423693	0.712139
319	C	0.801937	0.400811	0.66947
320	H	0.790006	0.429733	0.678799
321	H	0.78871	0.370796	0.695827
322	C	0.20237	0.60875	0.002286
323	H	0.216798	0.645189	0.982691
324	H	0.216753	0.584562	0.98615
