data_C144H126N72O36_2018-02-15_10:33:24
#******************************************
#
# CIF file created by Zeo++
# Zeo++ is an open source package to
# analyze microporous materials
#
#*******************************************

_cell_length_a		29.2295   
_cell_length_b		29.2296   
_cell_length_c		30.0372   
_cell_angle_alpha		90   
_cell_angle_beta		90   
_cell_angle_gamma		120   

_symmetry_space_group_name_H-M		'P1'
_symmetry_Int_Tables_number		1
_symmetry_cell_setting		Monoclinic

loop_
_symmetry_equiv_pos_as_xyz
'+x,+y,+z'

loop_
_atom_site_label
_atom_site_type_symbol
_atom_site_fract_x
_atom_site_fract_y
_atom_site_fract_z
1	C	0.368747	0.649621	0.033495
2	N	0.384481	0.701941	0.033882
3	C	0.348823	0.718801	0.033506
4	N	0.296503	0.682216	0.033841
5	C	0.27964	0.629695	0.033455
6	N	0.316228	0.613964	0.033835
7	N	0.366695	0.773479	0.03503
8	H	0.334843	0.77901	0.038934
9	N	0.224962	0.592888	0.034942
10	H	0.21943	0.555501	0.03881
11	N	0.405546	0.631741	0.035039
12	H	0.442928	0.66359	0.03896
13	C	0.636073	0.356913	0.958839
14	N	0.612449	0.303363	0.958909
15	C	0.641493	0.278848	0.958793
16	N	0.695044	0.308775	0.958839
17	C	0.719558	0.362332	0.958766
18	N	0.689631	0.385956	0.958879
19	N	0.615615	0.223227	0.96116
20	H	0.642308	0.210783	0.955157
21	N	0.775181	0.39208	0.961086
22	H	0.787615	0.43122	0.955114
23	N	0.606332	0.382788	0.961226
24	H	0.567187	0.35609	0.955257
25	C	0.438047	0.575491	0.331117
26	C	0.441736	0.54781	0.293722
27	C	0.471961	0.522389	0.296822
28	C	0.498578	0.523566	0.00309
29	C	0.495311	0.551211	0.040793
30	C	0.464708	0.576245	0.037395
31	H	0.462018	0.5955	0.064782
32	C	0.526518	0.495435	0.003853
33	C	0.571865	0.511778	0.310786
34	C	0.600299	0.484314	0.310925
35	C	0.582103	0.438418	0.005019
36	C	0.535912	0.421427	0.031528
37	C	0.508774	0.450095	0.030483
38	H	0.584739	0.544831	0.291401
39	H	0.475436	0.43745	0.049412
40	H	0.473697	0.501992	0.269736
41	N	0.644116	0.503695	0.28462
42	H	0.655398	0.535133	0.266423
43	H	0.666099	0.487577	0.283193
44	N	0.516477	0.375763	0.058682
45	N	0.414694	0.545463	0.253847
46	N	0.521104	0.555489	0.079707
47	H	0.518897	0.575372	0.104817
48	H	0.544556	0.541169	0.083137
49	O	0.470796	0.340701	0.047386
50	O	0.446023	0.565709	0.221694
51	O	0.516056	0.386377	0.099186
52	O	0.380973	0.498729	0.243936
53	C	0.405491	0.601828	0.32823
54	H	0.364935	0.570683	0.321328
55	H	0.419303	0.628924	0.299791
56	C	0.610753	0.407944	0.005292
57	H	0.596218	0.377354	0.030985
58	H	0.6521	0.435344	0.013634
59	C	0.422947	0.862215	0.331083
60	C	0.45062	0.893565	0.293678
61	C	0.476044	0.949216	0.296761
62	C	0.474874	0.974668	0.003021
63	C	0.447233	0.943776	0.040733
64	C	0.422206	0.888138	0.037354
65	H	0.402964	0.866205	0.06475
66	C	0.503016	0.030744	0.003772
67	C	0.486671	0.059745	0.310704
68	C	0.514123	0.115646	0.310856
69	C	0.560026	0.143346	0.004944
70	C	0.577028	0.114147	0.031443
71	C	0.548358	0.05834	0.0304
72	H	0.453601	0.039565	0.291339
73	H	0.56101	0.037649	0.049325
74	H	0.496436	0.971334	0.269669
75	N	0.494723	0.140078	0.284569
76	H	0.463277	0.119923	0.266385
77	H	0.51082	0.178177	0.283165
78	N	0.622695	0.140375	0.05859
79	N	0.452958	0.868851	0.253812
80	N	0.442982	0.965306	0.079648
81	H	0.423018	0.943227	0.104732
82	H	0.457215	0.003077	0.083022
83	O	0.657757	0.129759	0.047285
84	O	0.432705	0.879921	0.221654
85	O	0.61209	0.129341	0.099096
86	O	0.49969	0.88186	0.243898
87	C	0.396619	0.803321	0.328218
88	H	0.427768	0.793911	0.321334
89	H	0.369528	0.79002	0.299775
90	C	0.590485	0.202471	0.005229
91	H	0.621094	0.218522	0.03091
92	H	0.563081	0.216403	0.013599
93	C	0.136243	0.560451	0.330979
94	C	0.104901	0.556852	0.293589
95	C	0.049251	0.526631	0.296656
96	C	0.023783	0.49991	0.00288
97	C	0.054663	0.503091	0.040579
98	C	0.110303	0.533703	0.037218
99	H	0.132224	0.536326	0.064602
100	C	0.967709	0.471985	0.003619
101	C	0.938715	0.426669	0.31052
102	C	0.882812	0.39821	0.310678
103	C	0.855108	0.41637	0.004808
104	C	0.884307	0.462555	0.031326
105	C	0.940114	0.489706	0.030271
106	H	0.958897	0.413798	0.291133
107	H	0.960804	0.523032	0.049219
108	H	0.027142	0.524952	0.269572
109	N	0.858381	0.354405	0.28436
110	H	0.878538	0.343141	0.266148
111	H	0.820285	0.332404	0.282953
112	N	0.858075	0.481964	0.058509
113	N	0.129632	0.583988	0.253755
114	N	0.033123	0.477211	0.079455
115	H	0.055179	0.479451	0.104601
116	H	0.995333	0.453848	0.082896
117	O	0.868673	0.527643	0.047238
118	O	0.118569	0.552732	0.221548
119	O	0.869123	0.482362	0.099007
120	O	0.116633	0.617737	0.243911
121	C	0.195137	0.593019	0.328134
122	H	0.20455	0.633586	0.321292
123	H	0.208451	0.579267	0.299674
124	C	0.795985	0.387679	0.005124
125	H	0.77994	0.402192	0.030845
126	H	0.782079	0.346339	0.013455
127	C	0.368747	0.649621	0.366829
128	N	0.384481	0.701941	0.367215
129	C	0.348823	0.718801	0.366839
130	N	0.296503	0.682216	0.367172
131	C	0.27964	0.629695	0.366789
132	N	0.316228	0.613964	0.367169
133	N	0.366695	0.773479	0.368364
134	H	0.334843	0.77901	0.372266
135	N	0.224962	0.592888	0.368274
136	H	0.21943	0.555501	0.372142
137	N	0.405546	0.631741	0.36837
138	H	0.442928	0.66359	0.372292
139	C	0.636073	0.356913	0.292173
140	N	0.612449	0.303363	0.292245
141	C	0.641493	0.278848	0.292128
142	N	0.695044	0.308775	0.292175
143	C	0.719558	0.362332	0.292101
144	N	0.689631	0.385956	0.292214
145	N	0.615615	0.223227	0.294494
146	H	0.642308	0.210783	0.28849
147	N	0.775181	0.39208	0.294421
148	H	0.787615	0.43122	0.288448
149	N	0.606332	0.382788	0.294562
150	H	0.567187	0.35609	0.288592
151	C	0.438047	0.575491	0.66445
152	C	0.441736	0.54781	0.627053
153	C	0.471961	0.522389	0.630156
154	C	0.498578	0.523566	0.336423
155	C	0.495311	0.551211	0.374127
156	C	0.464708	0.576245	0.370728
157	H	0.462018	0.5955	0.398114
158	C	0.526518	0.495435	0.337186
159	C	0.571865	0.511778	0.644119
160	C	0.600299	0.484314	0.644259
161	C	0.582103	0.438418	0.338351
162	C	0.535912	0.421427	0.364861
163	C	0.508774	0.450095	0.363816
164	H	0.584739	0.544831	0.624733
165	H	0.475436	0.43745	0.382746
166	H	0.473697	0.501992	0.60307
167	N	0.644116	0.503695	0.617951
168	H	0.655398	0.535133	0.599757
169	H	0.666099	0.487577	0.616526
170	N	0.516477	0.375763	0.392015
171	N	0.414694	0.545463	0.587179
172	N	0.521104	0.555489	0.413042
173	H	0.518897	0.575372	0.438151
174	H	0.544556	0.541169	0.416471
175	O	0.470796	0.340701	0.380719
176	O	0.446023	0.565709	0.555026
177	O	0.516056	0.386377	0.432518
178	O	0.380973	0.498729	0.577268
179	C	0.405491	0.601828	0.661561
180	H	0.364935	0.570683	0.654659
181	H	0.419303	0.628924	0.633123
182	C	0.610753	0.407944	0.338624
183	H	0.596218	0.377354	0.364319
184	H	0.6521	0.435344	0.346967
185	C	0.422947	0.862215	0.664417
186	C	0.45062	0.893565	0.62701
187	C	0.476044	0.949216	0.630093
188	C	0.474874	0.974668	0.336353
189	C	0.447233	0.943776	0.374067
190	C	0.422206	0.888138	0.370688
191	H	0.402964	0.866205	0.398084
192	C	0.503016	0.030744	0.337106
193	C	0.486671	0.059745	0.644036
194	C	0.514123	0.115646	0.644189
195	C	0.560026	0.143346	0.338278
196	C	0.577028	0.114147	0.364775
197	C	0.548358	0.05834	0.363733
198	H	0.453601	0.039565	0.62467
199	H	0.56101	0.037649	0.382659
200	H	0.496436	0.971334	0.603003
201	N	0.494723	0.140078	0.617901
202	H	0.463277	0.119923	0.599717
203	H	0.51082	0.178177	0.616497
204	N	0.622695	0.140375	0.391925
205	N	0.452958	0.868851	0.587143
206	N	0.442982	0.965306	0.412982
207	H	0.423018	0.943227	0.438064
208	H	0.457215	0.003077	0.416354
209	O	0.657757	0.129759	0.380619
210	O	0.432705	0.879921	0.554986
211	O	0.61209	0.129341	0.432428
212	O	0.49969	0.88186	0.577232
213	C	0.396619	0.803321	0.661551
214	H	0.427768	0.793911	0.654666
215	H	0.369528	0.79002	0.633109
216	C	0.590485	0.202471	0.338561
217	H	0.621094	0.218522	0.364242
218	H	0.563081	0.216403	0.346934
219	C	0.136243	0.560451	0.664311
220	C	0.104901	0.556852	0.62692
221	C	0.049251	0.526631	0.62999
222	C	0.023783	0.49991	0.336214
223	C	0.054663	0.503091	0.373914
224	C	0.110303	0.533703	0.370551
225	H	0.132224	0.536326	0.397934
226	C	0.967709	0.471985	0.336953
227	C	0.938715	0.426669	0.643853
228	C	0.882812	0.39821	0.644012
229	C	0.855108	0.41637	0.338141
230	C	0.884307	0.462555	0.364658
231	C	0.940114	0.489706	0.363603
232	H	0.958897	0.413798	0.624467
233	H	0.960804	0.523032	0.382553
234	H	0.027142	0.524952	0.602907
235	N	0.858381	0.354405	0.617692
236	H	0.878538	0.343141	0.599481
237	H	0.820285	0.332404	0.616287
238	N	0.858075	0.481964	0.391841
239	N	0.129632	0.583988	0.587086
240	N	0.033123	0.477211	0.412789
241	H	0.055179	0.479451	0.437934
242	H	0.995333	0.453848	0.416228
243	O	0.868673	0.527643	0.380572
244	O	0.118569	0.552732	0.554879
245	O	0.869123	0.482362	0.432341
246	O	0.116633	0.617737	0.577245
247	C	0.195137	0.593019	0.661467
248	H	0.20455	0.633586	0.654626
249	H	0.208451	0.579267	0.633006
250	C	0.795985	0.387679	0.338458
251	H	0.77994	0.402192	0.364179
252	H	0.782079	0.346339	0.346787
253	C	0.368747	0.649621	0.70016
254	N	0.384481	0.701941	0.700549
255	C	0.348823	0.718801	0.700173
256	N	0.296503	0.682216	0.700506
257	C	0.27964	0.629695	0.70012
258	N	0.316228	0.613964	0.700502
259	N	0.366695	0.773479	0.701694
260	H	0.334843	0.77901	0.705599
261	N	0.224962	0.592888	0.701608
262	H	0.21943	0.555501	0.705476
263	N	0.405546	0.631741	0.701704
264	H	0.442928	0.66359	0.705626
265	C	0.636073	0.356913	0.625505
266	N	0.612449	0.303363	0.625579
267	C	0.641493	0.278848	0.625459
268	N	0.695044	0.308775	0.625509
269	C	0.719558	0.362332	0.625432
270	N	0.689631	0.385956	0.625545
271	N	0.615615	0.223227	0.627826
272	H	0.642308	0.210783	0.621823
273	N	0.775181	0.39208	0.627753
274	H	0.787615	0.43122	0.62178
275	N	0.606332	0.382788	0.627896
276	H	0.567187	0.35609	0.621923
277	C	0.438047	0.575491	0.997781
278	C	0.441736	0.54781	0.960387
279	C	0.471961	0.522389	0.963487
280	C	0.498578	0.523566	0.669754
281	C	0.495311	0.551211	0.707457
282	C	0.464708	0.576245	0.704061
283	H	0.462018	0.5955	0.731447
284	C	0.526518	0.495435	0.67052
285	C	0.571865	0.511778	0.977453
286	C	0.600299	0.484314	0.977589
287	C	0.582103	0.438418	0.671685
288	C	0.535912	0.421427	0.698195
289	C	0.508774	0.450095	0.69715
290	H	0.584739	0.544831	0.958067
291	H	0.475436	0.43745	0.71608
292	H	0.473697	0.501992	0.9364
293	N	0.644116	0.503695	0.951285
294	H	0.655398	0.535133	0.933088
295	H	0.666099	0.487577	0.949857
296	N	0.516477	0.375763	0.725348
297	N	0.414694	0.545463	0.920513
298	N	0.521104	0.555489	0.746372
299	H	0.518897	0.575372	0.771481
300	H	0.544556	0.541169	0.749801
301	O	0.470796	0.340701	0.714052
302	O	0.446023	0.565709	0.88836
303	O	0.516056	0.386377	0.765852
304	O	0.380973	0.498729	0.910602
305	C	0.405491	0.601828	0.994895
306	H	0.364935	0.570683	0.987993
307	H	0.419303	0.628924	0.966456
308	C	0.610753	0.407944	0.671958
309	H	0.596218	0.377354	0.697649
310	H	0.6521	0.435344	0.680301
311	C	0.422947	0.862215	0.997748
312	C	0.45062	0.893565	0.960344
313	C	0.476044	0.949216	0.963427
314	C	0.474874	0.974668	0.669687
315	C	0.447233	0.943776	0.707397
316	C	0.422206	0.888138	0.704021
317	H	0.402964	0.866205	0.731418
318	C	0.503016	0.030744	0.670436
319	C	0.486671	0.059745	0.97737
320	C	0.514123	0.115646	0.977523
321	C	0.560026	0.143346	0.671612
322	C	0.577028	0.114147	0.698109
323	C	0.548358	0.05834	0.697067
324	H	0.453601	0.039565	0.958004
325	H	0.56101	0.037649	0.71599
326	H	0.496436	0.971334	0.936334
327	N	0.494723	0.140078	0.951235
328	H	0.463277	0.119923	0.933051
329	H	0.51082	0.178177	0.94983
330	N	0.622695	0.140375	0.725255
331	N	0.452958	0.868851	0.920477
332	N	0.442982	0.965306	0.746312
333	H	0.423018	0.943227	0.771398
334	H	0.457215	0.003077	0.749688
335	O	0.657757	0.129759	0.713952
336	O	0.432705	0.879921	0.88832
337	O	0.61209	0.129341	0.765762
338	O	0.49969	0.88186	0.910562
339	C	0.396619	0.803321	0.994885
340	H	0.427768	0.793911	0.988
341	H	0.369528	0.79002	0.96644
342	C	0.590485	0.202471	0.671895
343	H	0.621094	0.218522	0.697576
344	H	0.563081	0.216403	0.680264
345	C	0.136243	0.560451	0.997644
346	C	0.104901	0.556852	0.960254
347	C	0.049251	0.526631	0.96332
348	C	0.023783	0.49991	0.669544
349	C	0.054663	0.503091	0.707244
350	C	0.110303	0.533703	0.703882
351	H	0.132224	0.536326	0.731268
352	C	0.967709	0.471985	0.670287
353	C	0.938715	0.426669	0.977186
354	C	0.882812	0.39821	0.977343
355	C	0.855108	0.41637	0.671472
356	C	0.884307	0.462555	0.697992
357	C	0.940114	0.489706	0.696937
358	H	0.958897	0.413798	0.957797
359	H	0.960804	0.523032	0.715883
360	H	0.027142	0.524952	0.936237
361	N	0.858381	0.354405	0.951026
362	H	0.878538	0.343141	0.932815
363	H	0.820285	0.332404	0.949617
364	N	0.858075	0.481964	0.725175
365	N	0.129632	0.583988	0.92042
366	N	0.033123	0.477211	0.746119
367	H	0.055179	0.479451	0.771268
368	H	0.995333	0.453848	0.749562
369	O	0.868673	0.527643	0.713903
370	O	0.118569	0.552732	0.888213
371	O	0.869123	0.482362	0.765672
372	O	0.116633	0.617737	0.910576
373	C	0.195137	0.593019	0.994801
374	H	0.20455	0.633586	0.987956
375	H	0.208451	0.579267	0.96634
376	C	0.795985	0.387679	0.671788
377	H	0.77994	0.402192	0.69751
378	H	0.782079	0.346339	0.680121
