data_C192H138N24_2018-02-15_10:48:10
#******************************************
#
# CIF file created by Zeo++
# Zeo++ is an open source package to
# analyze microporous materials
#
#*******************************************

_cell_length_a		25.6419   
_cell_length_b		25.6398   
_cell_length_c		29.3122   
_cell_angle_alpha		90   
_cell_angle_beta		90   
_cell_angle_gamma		89.9701   

_symmetry_space_group_name_H-M		'P1'
_symmetry_Int_Tables_number		1
_symmetry_cell_setting		Monoclinic

loop_
_symmetry_equiv_pos_as_xyz
'+x,+y,+z'

loop_
_atom_site_label
_atom_site_type_symbol
_atom_site_fract_x
_atom_site_fract_y
_atom_site_fract_z
1	C	0.914254	0.147787	0.337812
2	C	0.875911	0.109988	0.337504
3	C	0.899964	0.061056	0.337284
4	N	0.951944	0.071182	0.337048
5	C	0.962813	0.123017	0.337275
6	C	0.011858	0.149171	0.33703
7	C	0.061058	0.12351	0.336286
8	N	0.070941	0.071645	0.336827
9	C	0.122656	0.061119	0.335389
10	C	0.147553	0.109525	0.333553
11	C	0.109721	0.147854	0.334218
12	C	0.147663	0.01156	0.335151
13	C	0.120712	0.962897	0.3353
14	N	0.068716	0.952725	0.335393
15	C	0.057808	0.900876	0.335316
16	C	0.106394	0.876153	0.334951
17	C	0.144728	0.913946	0.335439
18	C	0.008767	0.874636	0.335468
19	C	0.959564	0.900346	0.336085
20	N	0.949752	0.952222	0.335605
21	C	0.898046	0.962819	0.336953
22	C	0.873038	0.914476	0.3386
23	C	0.910832	0.876106	0.338143
24	C	0.873099	0.012384	0.337322
25	C	0.817253	0.013221	0.337839
26	C	0.789637	0.023074	0.045357
27	C	0.734698	0.024884	0.045585
28	C	0.705844	0.015901	0.338653
29	C	0.733531	0.006205	0.297739
30	C	0.788489	0.004918	0.297331
31	C	0.008714	0.818711	0.335038
32	C	0.021076	0.789912	0.041417
33	C	0.020352	0.734939	0.041007
34	C	0.00697	0.707181	0.334264
35	C	0.993778	0.736027	0.294888
36	C	0.995145	0.790973	0.295057
37	C	0.20358	0.010776	0.334676
38	C	0.231288	0.997503	0.294601
39	C	0.286236	0.995955	0.294444
40	C	0.315102	0.008791	0.333895
41	C	0.287368	0.02197	0.040702
42	C	0.232403	0.022863	0.041101
43	C	0.011894	0.205028	0.337501
44	C	0.002783	0.233784	0.297117
45	C	0.022329	0.232662	0.044897
46	C	0.023815	0.287606	0.045152
47	C	0.013981	0.316456	0.338367
48	C	0.003761	0.288754	0.297558
49	H	0.997971	0.308401	0.267626
50	H	0.995808	0.214827	0.266998
51	H	0.031962	0.306518	0.075073
52	H	0.02951	0.212901	0.074587
53	H	0.907081	0.186996	0.338188
54	H	0.836815	0.11775	0.337574
55	H	0.978239	0.044507	0.336836
56	H	0.042421	0.979399	0.335294
57	H	0.117138	0.186965	0.332538
58	H	0.186706	0.116518	0.331402
59	H	0.211559	0.988315	0.265329
60	H	0.305148	0.985717	0.265015
61	H	0.213483	0.032191	0.070752
62	H	0.306972	0.030172	0.070213
63	H	0.183805	0.906122	0.335659
64	H	0.113647	0.836964	0.334688
65	H	0.83386	0.907596	0.340717
66	H	0.90331	0.837023	0.339929
67	H	0.030438	0.808863	0.07104
68	H	0.028762	0.715337	0.07048
69	H	0.98558	0.810685	0.265858
70	H	0.98332	0.717104	0.265526
71	H	0.807426	0.998229	0.267149
72	H	0.713886	0.000959	0.267732
73	H	0.715784	0.032549	0.075606
74	H	0.809406	0.029525	0.075163
75	N	0.003651	0.655251	0.332028
76	N	0.367034	0.005405	0.331687
77	N	0.017567	0.36835	0.340625
78	N	0.653947	0.019534	0.340894
79	C	0.003887	0.45746	0.325986
80	C	0.009503	0.49413	0.289776
81	C	0.016441	0.547559	0.300473
82	C	0.018052	0.566151	0.012594
83	C	0.012492	0.529493	0.048805
84	H	0.021321	0.573565	0.274216
85	C	0.005472	0.476076	0.038108
86	H	0.000588	0.450093	0.064381
87	C	0.012446	0.543577	0.098176
88	H	0.014828	0.585379	0.104443
89	H	0.045561	0.525031	0.11507
90	H	0.976546	0.529739	0.11414
91	C	0.009717	0.48007	0.240397
92	H	0.007586	0.438268	0.234095
93	H	0.045573	0.494103	0.224489
94	H	0.976539	0.498455	0.223462
95	C	0.994036	0.404675	0.318291
96	H	0.967167	0.395089	0.295336
97	C	0.028014	0.618889	0.020283
98	H	0.055514	0.62837	0.042688
99	C	0.564882	0.005838	0.326029
100	C	0.528282	0.01131	0.289742
101	C	0.474807	0.018163	0.300324
102	C	0.456098	0.019844	0.012404
103	C	0.492686	0.014442	0.048693
104	H	0.448859	0.022977	0.274011
105	C	0.546146	0.007507	0.038111
106	H	0.572071	0.002722	0.064442
107	C	0.47849	0.014517	0.098039
108	H	0.436671	0.016822	0.104226
109	H	0.496884	0.047729	0.114887
110	H	0.492409	0.978697	0.114113
111	C	0.542454	0.011482	0.240386
112	H	0.584278	0.009461	0.23416
113	H	0.528325	0.047276	0.224408
114	H	0.524236	0.978225	0.223461
115	C	0.617707	0.996045	0.318448
116	H	0.627404	0.969243	0.295456
117	C	0.403328	0.02979	0.019981
118	H	0.393767	0.057342	0.042325
119	C	0.914254	0.147787	0.671147
120	C	0.875911	0.109988	0.670836
121	C	0.899964	0.061056	0.670618
122	N	0.951944	0.071182	0.670382
123	C	0.962813	0.123017	0.670608
124	C	0.011858	0.149171	0.670365
125	C	0.061058	0.12351	0.669618
126	N	0.070941	0.071645	0.670161
127	C	0.122656	0.061119	0.668721
128	C	0.147553	0.109525	0.666886
129	C	0.109721	0.147854	0.667551
130	C	0.147663	0.01156	0.668486
131	C	0.120712	0.962897	0.668632
132	N	0.068716	0.952725	0.668728
133	C	0.057808	0.900876	0.668649
134	C	0.106394	0.876153	0.668284
135	C	0.144728	0.913946	0.668772
136	C	0.008767	0.874636	0.668803
137	C	0.959564	0.900346	0.66942
138	N	0.949752	0.952222	0.668939
139	C	0.898046	0.962819	0.670287
140	C	0.873038	0.914476	0.671935
141	C	0.910832	0.876106	0.671477
142	C	0.873099	0.012384	0.670655
143	C	0.817253	0.013221	0.671174
144	C	0.789637	0.023074	0.378692
145	C	0.734698	0.024884	0.378917
146	C	0.705844	0.015901	0.671986
147	C	0.733531	0.006205	0.631071
148	C	0.788489	0.004918	0.630665
149	C	0.008714	0.818711	0.668373
150	C	0.021076	0.789912	0.374751
151	C	0.020352	0.734939	0.374342
152	C	0.00697	0.707181	0.667599
153	C	0.993778	0.736027	0.628222
154	C	0.995145	0.790973	0.62839
155	C	0.20358	0.010776	0.668008
156	C	0.231288	0.997503	0.627936
157	C	0.286236	0.995955	0.627779
158	C	0.315102	0.008791	0.66723
159	C	0.287368	0.02197	0.374035
160	C	0.232403	0.022863	0.374434
161	C	0.011894	0.205028	0.670833
162	C	0.002783	0.233784	0.63045
163	C	0.022329	0.232662	0.378231
164	C	0.023815	0.287606	0.378484
165	C	0.013981	0.316456	0.671699
166	C	0.003761	0.288754	0.63089
167	H	0.997971	0.308401	0.600961
168	H	0.995808	0.214827	0.600333
169	H	0.031962	0.306518	0.408406
170	H	0.02951	0.212901	0.407922
171	H	0.907081	0.186996	0.671522
172	H	0.836815	0.11775	0.670908
173	H	0.978239	0.044507	0.670171
174	H	0.042421	0.979399	0.668629
175	H	0.117138	0.186965	0.665872
176	H	0.186706	0.116518	0.664736
177	H	0.211559	0.988315	0.598661
178	H	0.305148	0.985717	0.598348
179	H	0.213483	0.032191	0.404084
180	H	0.306972	0.030172	0.403548
181	H	0.183805	0.906122	0.66899
182	H	0.113647	0.836964	0.668022
183	H	0.83386	0.907596	0.67405
184	H	0.90331	0.837023	0.673262
185	H	0.030438	0.808863	0.404374
186	H	0.028762	0.715337	0.403814
187	H	0.98558	0.810685	0.599194
188	H	0.98332	0.717104	0.598859
189	H	0.807426	0.998229	0.600483
190	H	0.713886	0.000959	0.601067
191	H	0.715784	0.032549	0.408939
192	H	0.809406	0.029525	0.408495
193	N	0.003651	0.655251	0.665361
194	N	0.367034	0.005405	0.665019
195	N	0.017567	0.36835	0.673958
196	N	0.653947	0.019534	0.674227
197	C	0.003887	0.45746	0.659319
198	C	0.009503	0.49413	0.623109
199	C	0.016441	0.547559	0.633807
200	C	0.018052	0.566151	0.345927
201	C	0.012492	0.529493	0.382137
202	H	0.021321	0.573565	0.607548
203	C	0.005472	0.476076	0.371442
204	H	0.000588	0.450093	0.397715
205	C	0.012446	0.543577	0.431509
206	H	0.014828	0.585379	0.437776
207	H	0.045561	0.525031	0.448403
208	H	0.976546	0.529739	0.447472
209	C	0.009717	0.48007	0.57373
210	H	0.007586	0.438268	0.567429
211	H	0.045573	0.494103	0.557822
212	H	0.976539	0.498455	0.556795
213	C	0.994036	0.404675	0.651626
214	H	0.967167	0.395089	0.628669
215	C	0.028014	0.618889	0.353617
216	H	0.055514	0.62837	0.376021
217	C	0.564882	0.005838	0.659363
218	C	0.528282	0.01131	0.623074
219	C	0.474807	0.018163	0.633657
220	C	0.456098	0.019844	0.34574
221	C	0.492686	0.014442	0.382025
222	H	0.448859	0.022977	0.607344
223	C	0.546146	0.007507	0.371446
224	H	0.572071	0.002722	0.397776
225	C	0.47849	0.014517	0.431373
226	H	0.436671	0.016822	0.437561
227	H	0.496884	0.047729	0.448219
228	H	0.492409	0.978697	0.447448
229	C	0.542454	0.011482	0.57372
230	H	0.584278	0.009461	0.567494
231	H	0.528325	0.047276	0.55774
232	H	0.524236	0.978225	0.556795
233	C	0.617707	0.996045	0.651783
234	H	0.627404	0.969243	0.628789
235	C	0.403328	0.02979	0.353313
236	H	0.393767	0.057342	0.375659
237	C	0.914254	0.147787	0.004478
238	C	0.875911	0.109988	0.004171
239	C	0.899964	0.061056	0.003953
240	N	0.951944	0.071182	0.003714
241	C	0.962813	0.123017	0.003943
242	C	0.011858	0.149171	0.003697
243	C	0.061058	0.12351	0.002953
244	N	0.070941	0.071645	0.003496
245	C	0.122656	0.061119	0.002056
246	C	0.147553	0.109525	0.000221
247	C	0.109721	0.147854	0.000886
248	C	0.147663	0.01156	0.001817
249	C	0.120712	0.962897	0.001968
250	N	0.068716	0.952725	0.00206
251	C	0.057808	0.900876	0.001985
252	C	0.106394	0.876153	0.00162
253	C	0.144728	0.913946	0.002107
254	C	0.008767	0.874636	0.002135
255	C	0.959564	0.900346	0.002752
256	N	0.949752	0.952222	0.002271
257	C	0.898046	0.962819	0.003619
258	C	0.873038	0.914476	0.005266
259	C	0.910832	0.876106	0.004809
260	C	0.873099	0.012384	0.003991
261	C	0.817253	0.013221	0.004506
262	C	0.789637	0.023074	0.712024
263	C	0.734698	0.024884	0.712252
264	C	0.705844	0.015901	0.005321
265	C	0.733531	0.006205	0.964406
266	C	0.788489	0.004918	0.963997
267	C	0.008714	0.818711	0.001705
268	C	0.021076	0.789912	0.708083
269	C	0.020352	0.734939	0.707674
270	C	0.00697	0.707181	0.00093
271	C	0.993778	0.736027	0.961554
272	C	0.995145	0.790973	0.961725
273	C	0.20358	0.010776	0.001343
274	C	0.231288	0.997503	0.961268
275	C	0.286236	0.995955	0.961111
276	C	0.315102	0.008791	0.000562
277	C	0.287368	0.02197	0.70737
278	C	0.232403	0.022863	0.707769
279	C	0.011894	0.205028	0.004168
280	C	0.002783	0.233784	0.963785
281	C	0.022329	0.232662	0.711563
282	C	0.023815	0.287606	0.711819
283	C	0.013981	0.316456	0.005034
284	C	0.003761	0.288754	0.964226
285	H	0.997971	0.308401	0.934293
286	H	0.995808	0.214827	0.933665
287	H	0.031962	0.306518	0.741742
288	H	0.02951	0.212901	0.741254
289	H	0.907081	0.186996	0.004857
290	H	0.836815	0.11775	0.00424
291	H	0.978239	0.044507	0.003503
292	H	0.042421	0.979399	0.001961
293	H	0.117138	0.186965	0.999204
294	H	0.186706	0.116518	0.998068
295	H	0.211559	0.988315	0.931997
296	H	0.305148	0.985717	0.931683
297	H	0.213483	0.032191	0.737419
298	H	0.306972	0.030172	0.73688
299	H	0.183805	0.906122	0.002326
300	H	0.113647	0.836964	0.001353
301	H	0.83386	0.907596	0.007385
302	H	0.90331	0.837023	0.006597
303	H	0.030438	0.808863	0.737706
304	H	0.028762	0.715337	0.737146
305	H	0.98558	0.810685	0.932525
306	H	0.98332	0.717104	0.932195
307	H	0.807426	0.998229	0.933815
308	H	0.713886	0.000959	0.934398
309	H	0.715784	0.032549	0.742274
310	H	0.809406	0.029525	0.74183
311	N	0.003651	0.655251	0.998696
312	N	0.367034	0.005405	0.998355
313	N	0.017567	0.36835	0.007293
314	N	0.653947	0.019534	0.007562
315	C	0.003887	0.45746	0.992654
316	C	0.009503	0.49413	0.956444
317	C	0.016441	0.547559	0.967139
318	C	0.018052	0.566151	0.679259
319	C	0.012492	0.529493	0.715473
320	H	0.021321	0.573565	0.940884
321	C	0.005472	0.476076	0.704774
322	H	0.000588	0.450093	0.731046
323	C	0.012446	0.543577	0.764845
324	H	0.014828	0.585379	0.771112
325	H	0.045561	0.525031	0.781739
326	H	0.976546	0.529739	0.780807
327	C	0.009717	0.48007	0.907065
328	H	0.007586	0.438268	0.900761
329	H	0.045573	0.494103	0.891157
330	H	0.976539	0.498455	0.89013
331	C	0.994036	0.404675	0.984958
332	H	0.967167	0.395089	0.962005
333	C	0.028014	0.618889	0.686949
334	H	0.055514	0.62837	0.709356
335	C	0.564882	0.005838	0.992695
336	C	0.528282	0.01131	0.95641
337	C	0.474807	0.018163	0.966992
338	C	0.456098	0.019844	0.679072
339	C	0.492686	0.014442	0.71536
340	H	0.448859	0.022977	0.940679
341	C	0.546146	0.007507	0.704778
342	H	0.572071	0.002722	0.731111
343	C	0.47849	0.014517	0.764708
344	H	0.436671	0.016822	0.770893
345	H	0.496884	0.047729	0.781554
346	H	0.492409	0.978697	0.78078
347	C	0.542454	0.011482	0.907055
348	H	0.584278	0.009461	0.900829
349	H	0.528325	0.047276	0.891075
350	H	0.524236	0.978225	0.890127
351	C	0.617707	0.996045	0.985114
352	H	0.627404	0.969243	0.962124
353	C	0.403328	0.02979	0.686649
354	H	0.393767	0.057342	0.708994
