data_C216H108N180_2018-02-15_10:37:49
#******************************************
#
# CIF file created by Zeo++
# Zeo++ is an open source package to
# analyze microporous materials
#
#*******************************************

_cell_length_a		28.7519   
_cell_length_b		28.752   
_cell_length_c		29.3932   
_cell_angle_alpha		90   
_cell_angle_beta		90   
_cell_angle_gamma		120   

_symmetry_space_group_name_H-M		'P1'
_symmetry_Int_Tables_number		1
_symmetry_cell_setting		Monoclinic

loop_
_symmetry_equiv_pos_as_xyz
'+x,+y,+z'

loop_
_atom_site_label
_atom_site_type_symbol
_atom_site_fract_x
_atom_site_fract_y
_atom_site_fract_z
1	C	0.209503	0.398355	0.0111
2	N	0.154948	0.370863	0.011034
3	C	0.127455	0.316308	0.011106
4	N	0.154947	0.289245	0.011034
5	C	0.209503	0.316308	0.011101
6	N	0.236565	0.370862	0.011029
7	C	0.321464	0.122279	0.009847
8	N	0.376019	0.149789	0.010256
9	C	0.403532	0.204344	0.009837
10	N	0.376021	0.23139	0.010256
11	C	0.321466	0.204346	0.009847
12	N	0.294419	0.149791	0.010266
13	C	0.293406	0.232404	0.01199
14	N	0.279596	0.246225	0.305425
15	C	0.252382	0.27344	0.303134
16	C	0.23755	0.288259	0.01059
17	N	0.251349	0.274452	0.050425
18	C	0.27866	0.247141	0.053329
19	H	0.243121	0.282708	0.272121
20	N	0.289973	0.235826	0.095233
21	H	0.309334	0.21647	0.099352
22	H	0.278805	0.246994	0.122388
23	C	0.293402	0.066162	0.01199
24	N	0.279592	0.038531	0.305425
25	C	0.252379	0.484102	0.303134
26	C	0.237551	0.454451	0.010589
27	N	0.25135	0.482057	0.050424
28	C	0.278659	0.036679	0.053328
29	H	0.243119	0.465575	0.272121
30	N	0.289973	0.059307	0.095233
31	H	0.309333	0.098024	0.099352
32	H	0.278806	0.03697	0.122388
33	C	0.45965	0.232408	0.011984
34	N	0.487285	0.246221	0.30542
35	C	0.041713	0.273436	0.303133
36	C	0.071359	0.288261	0.010591
37	N	0.04375	0.274458	0.050424
38	C	0.489129	0.247147	0.053324
39	H	0.060244	0.282699	0.272122
40	N	0.466498	0.235831	0.095227
41	H	0.427779	0.216472	0.099344
42	H	0.488831	0.246997	0.122384
43	C	0.209503	0.398355	0.344434
44	N	0.154948	0.370863	0.344366
45	C	0.127455	0.316308	0.344437
46	N	0.154947	0.289245	0.344366
47	C	0.209503	0.316308	0.344434
48	N	0.236565	0.370862	0.344363
49	C	0.321464	0.122279	0.343182
50	N	0.376019	0.149789	0.34359
51	C	0.403532	0.204344	0.343172
52	N	0.376021	0.23139	0.34359
53	C	0.321466	0.204346	0.343182
54	N	0.294419	0.149791	0.3436
55	C	0.293406	0.232404	0.345322
56	N	0.279596	0.246225	0.638758
57	C	0.252382	0.27344	0.636468
58	C	0.23755	0.288259	0.343924
59	N	0.251349	0.274452	0.383756
60	C	0.27866	0.247141	0.386661
61	H	0.243121	0.282708	0.605454
62	N	0.289973	0.235826	0.428566
63	H	0.309334	0.21647	0.432686
64	H	0.278805	0.246994	0.455722
65	C	0.293402	0.066162	0.345322
66	N	0.279592	0.038531	0.638758
67	C	0.252379	0.484102	0.636468
68	C	0.237551	0.454451	0.34392
69	N	0.25135	0.482057	0.383756
70	C	0.278659	0.036679	0.386661
71	H	0.243119	0.465575	0.605454
72	N	0.289973	0.059307	0.428566
73	H	0.309333	0.098024	0.432686
74	H	0.278806	0.03697	0.455722
75	C	0.45965	0.232408	0.345315
76	N	0.487285	0.246221	0.638754
77	C	0.041713	0.273436	0.636465
78	C	0.071359	0.288261	0.343924
79	N	0.04375	0.274458	0.383756
80	C	0.489129	0.247147	0.386658
81	H	0.060244	0.282699	0.605454
82	N	0.466498	0.235831	0.428559
83	H	0.427779	0.216472	0.432676
84	H	0.488831	0.246997	0.455718
85	C	0.209503	0.398355	0.677767
86	N	0.154948	0.370863	0.677699
87	C	0.127455	0.316308	0.67777
88	N	0.154947	0.289245	0.677699
89	C	0.209503	0.316308	0.677767
90	N	0.236565	0.370862	0.677695
91	C	0.321464	0.122279	0.676515
92	N	0.376019	0.149789	0.676923
93	C	0.403532	0.204344	0.676504
94	N	0.376021	0.23139	0.676923
95	C	0.321466	0.204346	0.676515
96	N	0.294419	0.149791	0.676933
97	C	0.293406	0.232404	0.678655
98	N	0.279596	0.246225	0.97209
99	C	0.252382	0.27344	0.969801
100	C	0.23755	0.288259	0.677256
101	N	0.251349	0.274452	0.717092
102	C	0.27866	0.247141	0.719994
103	H	0.243121	0.282708	0.938787
104	N	0.289973	0.235826	0.761899
105	H	0.309334	0.21647	0.766019
106	H	0.278805	0.246994	0.789054
107	C	0.293402	0.066162	0.678655
108	N	0.279592	0.038531	0.97209
109	C	0.252379	0.484102	0.969801
110	C	0.237551	0.454451	0.677253
111	N	0.25135	0.482057	0.717089
112	C	0.278659	0.036679	0.719994
113	H	0.243119	0.465575	0.938787
114	N	0.289973	0.059307	0.761899
115	H	0.309333	0.098024	0.766019
116	H	0.278806	0.03697	0.789054
117	C	0.45965	0.232408	0.678648
118	N	0.487285	0.246221	0.972087
119	C	0.041713	0.273436	0.969797
120	C	0.071359	0.288261	0.677256
121	N	0.04375	0.274458	0.717089
122	C	0.489129	0.247147	0.719991
123	H	0.060244	0.282699	0.938787
124	N	0.466498	0.235831	0.761892
125	H	0.427779	0.216472	0.766008
126	H	0.488831	0.246997	0.789051
127	C	0.209504	0.898356	0.0111
128	N	0.154948	0.870862	0.011034
129	C	0.127455	0.816307	0.011106
130	N	0.154946	0.789243	0.011034
131	C	0.209503	0.816307	0.011101
132	N	0.236565	0.870862	0.011029
133	C	0.321464	0.622279	0.009847
134	N	0.376019	0.649789	0.010256
135	C	0.403532	0.704343	0.009837
136	N	0.376021	0.731387	0.010256
137	C	0.321467	0.704347	0.009847
138	N	0.294419	0.649789	0.010266
139	C	0.293406	0.732403	0.01199
140	N	0.279595	0.746223	0.305425
141	C	0.252382	0.77344	0.303134
142	C	0.237551	0.788259	0.01059
143	N	0.251349	0.774452	0.050425
144	C	0.278662	0.747142	0.053329
145	H	0.243122	0.782709	0.272121
146	N	0.289973	0.735825	0.095233
147	H	0.309336	0.716472	0.099352
148	H	0.278805	0.746994	0.122388
149	C	0.293403	0.566162	0.01199
150	N	0.279593	0.538531	0.305425
151	C	0.25238	0.984103	0.303134
152	C	0.237552	0.954452	0.010589
153	N	0.25135	0.982055	0.050424
154	C	0.27866	0.53668	0.053328
155	H	0.243118	0.965573	0.272121
156	N	0.289973	0.559307	0.095233
157	H	0.309332	0.598022	0.099352
158	H	0.278806	0.536969	0.122388
159	C	0.45965	0.732407	0.011984
160	N	0.487285	0.746223	0.30542
161	C	0.041713	0.773436	0.303133
162	C	0.071358	0.788259	0.010591
163	N	0.043749	0.774456	0.050424
164	C	0.489129	0.747146	0.053324
165	H	0.060243	0.782697	0.272122
166	N	0.466496	0.735829	0.095227
167	H	0.427779	0.716472	0.099344
168	H	0.488831	0.746998	0.122384
169	C	0.209504	0.898356	0.344434
170	N	0.154948	0.870862	0.344366
171	C	0.127455	0.816307	0.344437
172	N	0.154946	0.789243	0.344366
173	C	0.209503	0.816307	0.344434
174	N	0.236565	0.870862	0.344363
175	C	0.321464	0.622279	0.343182
176	N	0.376019	0.649789	0.34359
177	C	0.403532	0.704343	0.343172
178	N	0.376021	0.731387	0.34359
179	C	0.321467	0.704347	0.343182
180	N	0.294419	0.649789	0.3436
181	C	0.293406	0.732403	0.345322
182	N	0.279595	0.746223	0.638758
183	C	0.252382	0.77344	0.636468
184	C	0.237551	0.788259	0.343924
185	N	0.251349	0.774452	0.383756
186	C	0.278662	0.747142	0.386661
187	H	0.243122	0.782709	0.605454
188	N	0.289973	0.735825	0.428566
189	H	0.309336	0.716472	0.432686
190	H	0.278805	0.746994	0.455722
191	C	0.293403	0.566162	0.345322
192	N	0.279593	0.538531	0.638758
193	C	0.25238	0.984103	0.636468
194	C	0.237552	0.954452	0.34392
195	N	0.25135	0.982055	0.383756
196	C	0.27866	0.53668	0.386661
197	H	0.243118	0.965573	0.605454
198	N	0.289973	0.559307	0.428566
199	H	0.309332	0.598022	0.432686
200	H	0.278806	0.536969	0.455722
201	C	0.45965	0.732407	0.345315
202	N	0.487285	0.746223	0.638754
203	C	0.041713	0.773436	0.636465
204	C	0.071358	0.788259	0.343924
205	N	0.043749	0.774456	0.383756
206	C	0.489129	0.747146	0.386658
207	H	0.060243	0.782697	0.605454
208	N	0.466496	0.735829	0.428559
209	H	0.427779	0.716472	0.432676
210	H	0.488831	0.746998	0.455718
211	C	0.209504	0.898356	0.677767
212	N	0.154948	0.870862	0.677699
213	C	0.127455	0.816307	0.67777
214	N	0.154946	0.789243	0.677699
215	C	0.209503	0.816307	0.677767
216	N	0.236565	0.870862	0.677695
217	C	0.321464	0.622279	0.676515
218	N	0.376019	0.649789	0.676923
219	C	0.403532	0.704343	0.676504
220	N	0.376021	0.731387	0.676923
221	C	0.321467	0.704347	0.676515
222	N	0.294419	0.649789	0.676933
223	C	0.293406	0.732403	0.678655
224	N	0.279595	0.746223	0.97209
225	C	0.252382	0.77344	0.969801
226	C	0.237551	0.788259	0.677256
227	N	0.251349	0.774452	0.717092
228	C	0.278662	0.747142	0.719994
229	H	0.243122	0.782709	0.938787
230	N	0.289973	0.735825	0.761899
231	H	0.309336	0.716472	0.766019
232	H	0.278805	0.746994	0.789054
233	C	0.293403	0.566162	0.678655
234	N	0.279593	0.538531	0.97209
235	C	0.25238	0.984103	0.969801
236	C	0.237552	0.954452	0.677253
237	N	0.25135	0.982055	0.717089
238	C	0.27866	0.53668	0.719994
239	H	0.243118	0.965573	0.938787
240	N	0.289973	0.559307	0.761899
241	H	0.309332	0.598022	0.766019
242	H	0.278806	0.536969	0.789054
243	C	0.45965	0.732407	0.678648
244	N	0.487285	0.746223	0.972087
245	C	0.041713	0.773436	0.969797
246	C	0.071358	0.788259	0.677256
247	N	0.043749	0.774456	0.717089
248	C	0.489129	0.747146	0.719991
249	H	0.060243	0.782697	0.938787
250	N	0.466496	0.735829	0.761892
251	H	0.427779	0.716472	0.766008
252	H	0.488831	0.746998	0.789051
253	C	0.709503	0.398355	0.0111
254	N	0.654949	0.370863	0.011034
255	C	0.627456	0.316308	0.011106
256	N	0.654948	0.289245	0.011034
257	C	0.709502	0.316308	0.011101
258	N	0.736568	0.370862	0.011029
259	C	0.821465	0.122279	0.009847
260	N	0.876021	0.149789	0.010256
261	C	0.903532	0.204344	0.009837
262	N	0.876021	0.23139	0.010256
263	C	0.821465	0.204346	0.009847
264	N	0.79442	0.149791	0.010266
265	C	0.793406	0.232404	0.01199
266	N	0.779598	0.246225	0.305425
267	C	0.752384	0.27344	0.303134
268	C	0.737551	0.288259	0.01059
269	N	0.751349	0.274452	0.050425
270	C	0.778662	0.247141	0.053329
271	H	0.743123	0.282708	0.272121
272	N	0.789973	0.235826	0.095233
273	H	0.809337	0.21647	0.099352
274	H	0.778804	0.246994	0.122388
275	C	0.793403	0.066162	0.01199
276	N	0.779594	0.038531	0.305425
277	C	0.75238	0.484102	0.303134
278	C	0.737551	0.454451	0.010589
279	N	0.751351	0.482057	0.050424
280	C	0.778661	0.036679	0.053328
281	H	0.74312	0.465575	0.272121
282	N	0.789976	0.059307	0.095233
283	H	0.809334	0.098024	0.099352
284	H	0.778807	0.03697	0.122388
285	C	0.959651	0.232408	0.011984
286	N	0.987284	0.246221	0.30542
287	C	0.541714	0.273436	0.303133
288	C	0.571358	0.288261	0.010591
289	N	0.543752	0.274458	0.050424
290	C	0.989131	0.247147	0.053324
291	H	0.560244	0.282699	0.272122
292	N	0.966496	0.235831	0.095227
293	H	0.927779	0.216472	0.099344
294	H	0.98883	0.246997	0.122384
295	C	0.709503	0.398355	0.344434
296	N	0.654949	0.370863	0.344366
297	C	0.627456	0.316308	0.344437
298	N	0.654948	0.289245	0.344366
299	C	0.709502	0.316308	0.344434
300	N	0.736568	0.370862	0.344363
301	C	0.821465	0.122279	0.343182
302	N	0.876021	0.149789	0.34359
303	C	0.903532	0.204344	0.343172
304	N	0.876021	0.23139	0.34359
305	C	0.821465	0.204346	0.343182
306	N	0.79442	0.149791	0.3436
307	C	0.793406	0.232404	0.345322
308	N	0.779598	0.246225	0.638758
309	C	0.752384	0.27344	0.636468
310	C	0.737551	0.288259	0.343924
311	N	0.751349	0.274452	0.383756
312	C	0.778662	0.247141	0.386661
313	H	0.743123	0.282708	0.605454
314	N	0.789973	0.235826	0.428566
315	H	0.809337	0.21647	0.432686
316	H	0.778804	0.246994	0.455722
317	C	0.793403	0.066162	0.345322
318	N	0.779594	0.038531	0.638758
319	C	0.75238	0.484102	0.636468
320	C	0.737551	0.454451	0.34392
321	N	0.751351	0.482057	0.383756
322	C	0.778661	0.036679	0.386661
323	H	0.74312	0.465575	0.605454
324	N	0.789976	0.059307	0.428566
325	H	0.809334	0.098024	0.432686
326	H	0.778807	0.03697	0.455722
327	C	0.959651	0.232408	0.345315
328	N	0.987284	0.246221	0.638754
329	C	0.541714	0.273436	0.636465
330	C	0.571358	0.288261	0.343924
331	N	0.543752	0.274458	0.383756
332	C	0.989131	0.247147	0.386658
333	H	0.560244	0.282699	0.605454
334	N	0.966496	0.235831	0.428559
335	H	0.927779	0.216472	0.432676
336	H	0.98883	0.246997	0.455718
337	C	0.709503	0.398355	0.677767
338	N	0.654949	0.370863	0.677699
339	C	0.627456	0.316308	0.67777
340	N	0.654948	0.289245	0.677699
341	C	0.709502	0.316308	0.677767
342	N	0.736568	0.370862	0.677695
343	C	0.821465	0.122279	0.676515
344	N	0.876021	0.149789	0.676923
345	C	0.903532	0.204344	0.676504
346	N	0.876021	0.23139	0.676923
347	C	0.821465	0.204346	0.676515
348	N	0.79442	0.149791	0.676933
349	C	0.793406	0.232404	0.678655
350	N	0.779598	0.246225	0.97209
351	C	0.752384	0.27344	0.969801
352	C	0.737551	0.288259	0.677256
353	N	0.751349	0.274452	0.717092
354	C	0.778662	0.247141	0.719994
355	H	0.743123	0.282708	0.938787
356	N	0.789973	0.235826	0.761899
357	H	0.809337	0.21647	0.766019
358	H	0.778804	0.246994	0.789054
359	C	0.793403	0.066162	0.678655
360	N	0.779594	0.038531	0.97209
361	C	0.75238	0.484102	0.969801
362	C	0.737551	0.454451	0.677253
363	N	0.751351	0.482057	0.717089
364	C	0.778661	0.036679	0.719994
365	H	0.74312	0.465575	0.938787
366	N	0.789976	0.059307	0.761899
367	H	0.809334	0.098024	0.766019
368	H	0.778807	0.03697	0.789054
369	C	0.959651	0.232408	0.678648
370	N	0.987284	0.246221	0.972087
371	C	0.541714	0.273436	0.969797
372	C	0.571358	0.288261	0.677256
373	N	0.543752	0.274458	0.717089
374	C	0.989131	0.247147	0.719991
375	H	0.560244	0.282699	0.938787
376	N	0.966496	0.235831	0.761892
377	H	0.927779	0.216472	0.766008
378	H	0.98883	0.246997	0.789051
379	C	0.709504	0.898356	0.0111
380	N	0.654949	0.870862	0.011034
381	C	0.627456	0.816307	0.011106
382	N	0.654948	0.789243	0.011034
383	C	0.709504	0.816307	0.011101
384	N	0.736566	0.870862	0.011029
385	C	0.821465	0.622279	0.009847
386	N	0.876021	0.649789	0.010256
387	C	0.903535	0.704343	0.009837
388	N	0.876023	0.731387	0.010256
389	C	0.821469	0.704347	0.009847
390	N	0.794419	0.649789	0.010266
391	C	0.793406	0.732403	0.01199
392	N	0.779597	0.746223	0.305425
393	C	0.752384	0.77344	0.303134
394	C	0.737552	0.788259	0.01059
395	N	0.751349	0.774452	0.050425
396	C	0.778662	0.747142	0.053329
397	H	0.743124	0.782709	0.272121
398	N	0.789973	0.735825	0.095233
399	H	0.809338	0.716472	0.099352
400	H	0.778807	0.746994	0.122388
401	C	0.793403	0.566162	0.01199
402	N	0.779595	0.538531	0.305425
403	C	0.752381	0.984103	0.303134
404	C	0.737552	0.954452	0.010589
405	N	0.75135	0.982055	0.050424
406	C	0.778662	0.53668	0.053328
407	H	0.743119	0.965573	0.272121
408	N	0.789975	0.559307	0.095233
409	H	0.809333	0.598022	0.099352
410	H	0.778807	0.536969	0.122388
411	C	0.959651	0.732407	0.011984
412	N	0.987288	0.746223	0.30542
413	C	0.541714	0.773436	0.303133
414	C	0.571359	0.788259	0.010591
415	N	0.54375	0.774456	0.050424
416	C	0.98913	0.747146	0.053324
417	H	0.560244	0.782697	0.272122
418	N	0.966495	0.735829	0.095227
419	H	0.927779	0.716472	0.099344
420	H	0.988833	0.746998	0.122384
421	C	0.709504	0.898356	0.344434
422	N	0.654949	0.870862	0.344366
423	C	0.627456	0.816307	0.344437
424	N	0.654948	0.789243	0.344366
425	C	0.709504	0.816307	0.344434
426	N	0.736566	0.870862	0.344363
427	C	0.821465	0.622279	0.343182
428	N	0.876021	0.649789	0.34359
429	C	0.903535	0.704343	0.343172
430	N	0.876023	0.731387	0.34359
431	C	0.821469	0.704347	0.343182
432	N	0.794419	0.649789	0.3436
433	C	0.793406	0.732403	0.345322
434	N	0.779597	0.746223	0.638758
435	C	0.752384	0.77344	0.636468
436	C	0.737552	0.788259	0.343924
437	N	0.751349	0.774452	0.383756
438	C	0.778662	0.747142	0.386661
439	H	0.743124	0.782709	0.605454
440	N	0.789973	0.735825	0.428566
441	H	0.809338	0.716472	0.432686
442	H	0.778807	0.746994	0.455722
443	C	0.793403	0.566162	0.345322
444	N	0.779595	0.538531	0.638758
445	C	0.752381	0.984103	0.636468
446	C	0.737552	0.954452	0.34392
447	N	0.75135	0.982055	0.383756
448	C	0.778662	0.53668	0.386661
449	H	0.743119	0.965573	0.605454
450	N	0.789975	0.559307	0.428566
451	H	0.809333	0.598022	0.432686
452	H	0.778807	0.536969	0.455722
453	C	0.959651	0.732407	0.345315
454	N	0.987288	0.746223	0.638754
455	C	0.541714	0.773436	0.636465
456	C	0.571359	0.788259	0.343924
457	N	0.54375	0.774456	0.383756
458	C	0.98913	0.747146	0.386658
459	H	0.560244	0.782697	0.605454
460	N	0.966495	0.735829	0.428559
461	H	0.927779	0.716472	0.432676
462	H	0.988833	0.746998	0.455718
463	C	0.709504	0.898356	0.677767
464	N	0.654949	0.870862	0.677699
465	C	0.627456	0.816307	0.67777
466	N	0.654948	0.789243	0.677699
467	C	0.709504	0.816307	0.677767
468	N	0.736566	0.870862	0.677695
469	C	0.821465	0.622279	0.676515
470	N	0.876021	0.649789	0.676923
471	C	0.903535	0.704343	0.676504
472	N	0.876023	0.731387	0.676923
473	C	0.821469	0.704347	0.676515
474	N	0.794419	0.649789	0.676933
475	C	0.793406	0.732403	0.678655
476	N	0.779597	0.746223	0.97209
477	C	0.752384	0.77344	0.969801
478	C	0.737552	0.788259	0.677256
479	N	0.751349	0.774452	0.717092
480	C	0.778662	0.747142	0.719994
481	H	0.743124	0.782709	0.938787
482	N	0.789973	0.735825	0.761899
483	H	0.809338	0.716472	0.766019
484	H	0.778807	0.746994	0.789054
485	C	0.793403	0.566162	0.678655
486	N	0.779595	0.538531	0.97209
487	C	0.752381	0.984103	0.969801
488	C	0.737552	0.954452	0.677253
489	N	0.75135	0.982055	0.717089
490	C	0.778662	0.53668	0.719994
491	H	0.743119	0.965573	0.938787
492	N	0.789975	0.559307	0.761899
493	H	0.809333	0.598022	0.766019
494	H	0.778807	0.536969	0.789054
495	C	0.959651	0.732407	0.678648
496	N	0.987288	0.746223	0.972087
497	C	0.541714	0.773436	0.969797
498	C	0.571359	0.788259	0.677256
499	N	0.54375	0.774456	0.717089
500	C	0.98913	0.747146	0.719991
501	H	0.560244	0.782697	0.938787
502	N	0.966495	0.735829	0.761892
503	H	0.927779	0.716472	0.766008
504	H	0.988833	0.746998	0.789051
