data_C180H117N27O18_2018-02-15_10:46:01
#******************************************
#
# CIF file created by Zeo++
# Zeo++ is an open source package to
# analyze microporous materials
#
#*******************************************

_cell_length_a		29.4536   
_cell_length_b		29.4536   
_cell_length_c		29.9948   
_cell_angle_alpha		90   
_cell_angle_beta		90   
_cell_angle_gamma		120   

_symmetry_space_group_name_H-M		'P1'
_symmetry_Int_Tables_number		1
_symmetry_cell_setting		Monoclinic

loop_
_symmetry_equiv_pos_as_xyz
'+x,+y,+z'

loop_
_atom_site_label
_atom_site_type_symbol
_atom_site_fract_x
_atom_site_fract_y
_atom_site_fract_z
1	C	0.3598	0.637533	0.000528
2	C	0.304575	0.611662	1.5e-05
3	C	0.277893	0.640387	0.000529
4	C	0.307249	0.695613	1.1e-05
5	C	0.362657	0.722292	0.000535
6	C	0.388529	0.69294	8e-06
7	H	0.288151	0.71665	0.999724
8	H	0.428664	0.712032	0.999748
9	H	0.283535	0.571525	0.999734
10	N	0.382654	0.608471	0.000585
11	N	0.225977	0.617519	0.000548
12	N	0.391705	0.77421	0.000553
13	C	0.636835	0.359046	0.999171
14	C	0.692073	0.388403	0.999628
15	C	0.722382	0.363361	0.999274
16	C	0.696502	0.308124	0.999651
17	C	0.641151	0.277814	0.999181
18	C	0.611795	0.303696	0.999591
19	H	0.718233	0.289801	0.001108
20	H	0.571738	0.281965	0.00101
21	H	0.710396	0.428457	0.00109
22	N	0.611108	0.385312	0.001632
23	N	0.774377	0.389107	0.001728
24	N	0.614886	0.22582	0.001641
25	C	0.440055	0.579232	0.020335
26	C	0.451652	0.560022	0.059137
27	C	0.471086	0.524754	0.056987
28	C	0.481403	0.509649	0.014664
29	C	0.46653	0.526581	0.308829
30	C	0.44689	0.561465	0.311942
31	H	0.43771	0.574249	0.283394
32	C	0.502468	0.474965	0.009119
33	C	0.539865	0.474793	0.038721
34	C	0.560765	0.441661	0.031955
35	C	0.546205	0.408255	0.327779
36	C	0.511199	0.410212	0.296677
37	C	0.49026	0.443696	0.303203
38	H	0.554072	0.500185	0.064956
39	H	0.587043	0.442461	0.054742
40	H	0.50134	0.387553	0.268498
41	H	0.444658	0.570705	0.089776
42	C	0.457145	0.448471	0.268105
43	C	0.470366	0.506293	0.264248
44	H	0.41592	0.423753	0.277276
45	H	0.463028	0.435436	0.235566
46	H	0.443603	0.508343	0.240112
47	H	0.510343	0.5304	0.251699
48	N	0.476208	0.50202	0.096969
49	O	0.507262	0.536018	0.124026
50	O	0.432774	0.47462	0.115974
51	C	0.565483	0.374372	0.320956
52	C	0.421825	0.614198	0.023873
53	H	0.543752	0.341387	0.303998
54	H	0.438071	0.642762	0.046437
55	C	0.420978	0.860851	0.020287
56	C	0.440184	0.891642	0.0591
57	C	0.475491	0.946339	0.056962
58	C	0.490619	0.971771	0.014647
59	C	0.473676	0.939984	0.308802
60	C	0.43877	0.885467	0.311902
61	H	0.425968	0.863517	0.283347
62	C	0.525291	0.027522	0.009105
63	C	0.525468	0.065081	0.038725
64	C	0.558583	0.119115	0.031969
65	C	0.591975	0.13798	0.327787
66	C	0.590017	0.101036	0.296666
67	C	0.556563	0.046607	0.30319
68	H	0.50007	0.053879	0.064956
69	H	0.557775	0.144585	0.054761
70	H	0.612692	0.113846	0.268496
71	H	0.429493	0.873953	0.089732
72	C	0.551797	0.008726	0.268088
73	C	0.493973	0.964118	0.264225
74	H	0.576517	0.992224	0.277258
75	H	0.564831	0.027651	0.235552
76	H	0.491936	0.935311	0.240089
77	H	0.469866	0.979984	0.251672
78	N	0.498224	0.974174	0.096952
79	O	0.46423	0.971245	0.124006
80	O	0.525596	0.958108	0.115957
81	C	0.625844	0.191146	0.320971
82	C	0.385944	0.807666	0.023792
83	H	0.658842	0.20241	0.304028
84	H	0.357447	0.795356	0.04642
85	C	0.13934	0.560144	0.020289
86	C	0.108558	0.548551	0.059107
87	C	0.053865	0.529188	0.056981
88	C	0.028428	0.518917	0.01467
89	C	0.060198	0.533716	0.308817
90	C	0.114717	0.553322	0.311907
91	H	0.136659	0.562461	0.283349
92	C	0.972677	0.497837	0.009142
93	C	0.935128	0.460487	0.038786
94	C	0.881091	0.439525	0.032013
95	C	0.862214	0.45403	0.327825
96	C	0.899152	0.489032	0.296707
97	C	0.953582	0.510017	0.30323
98	H	0.946329	0.446248	0.064988
99	H	0.85563	0.413238	0.0548
100	H	0.886336	0.498872	0.268528
101	H	0.126259	0.555576	0.089736
102	C	0.991457	0.54311	0.268114
103	C	0.036053	0.529882	0.264246
104	H	0.007972	0.584341	0.277274
105	H	0.972523	0.537217	0.235582
106	H	0.06486	0.556647	0.240105
107	H	0.020178	0.48991	0.251695
108	N	0.026056	0.524127	0.09698
109	O	0.028967	0.493054	0.124037
110	O	0.04216	0.567577	0.115975
111	C	0.809044	0.434722	0.321014
112	C	0.192525	0.578295	0.023786
113	H	0.797769	0.45641	0.304008
114	H	0.204837	0.562108	0.046409
115	C	0.3598	0.637533	0.333862
116	C	0.304575	0.611662	0.333349
117	C	0.277893	0.640387	0.333862
118	C	0.307249	0.695613	0.333346
119	C	0.362657	0.722292	0.333868
120	C	0.388529	0.69294	0.333343
121	H	0.288151	0.71665	0.333058
122	H	0.428664	0.712032	0.333083
123	H	0.283535	0.571525	0.333069
124	N	0.382654	0.608471	0.333918
125	N	0.225977	0.617519	0.333882
126	N	0.391705	0.77421	0.333885
127	C	0.636835	0.359046	0.332505
128	C	0.692073	0.388403	0.332961
129	C	0.722382	0.363361	0.332608
130	C	0.696502	0.308124	0.332984
131	C	0.641151	0.277814	0.332515
132	C	0.611795	0.303696	0.332925
133	H	0.718233	0.289801	0.334442
134	H	0.571738	0.281965	0.334342
135	H	0.710396	0.428457	0.334422
136	N	0.611108	0.385312	0.334965
137	N	0.774377	0.389107	0.335062
138	N	0.614886	0.22582	0.334975
139	C	0.440055	0.579232	0.353668
140	C	0.451652	0.560022	0.392468
141	C	0.471086	0.524754	0.390321
142	C	0.481403	0.509649	0.347997
143	C	0.46653	0.526581	0.642162
144	C	0.44689	0.561465	0.645276
145	H	0.43771	0.574249	0.616728
146	C	0.502468	0.474965	0.342453
147	C	0.539865	0.474793	0.372055
148	C	0.560765	0.441661	0.365287
149	C	0.546205	0.408255	0.661112
150	C	0.511199	0.410212	0.63001
151	C	0.49026	0.443696	0.636534
152	H	0.554072	0.500185	0.39829
153	H	0.587043	0.442461	0.388074
154	H	0.50134	0.387553	0.601832
155	H	0.444658	0.570705	0.42311
156	C	0.457145	0.448471	0.601438
157	C	0.470366	0.506293	0.597581
158	H	0.41592	0.423753	0.61061
159	H	0.463028	0.435436	0.568899
160	H	0.443603	0.508343	0.573443
161	H	0.510343	0.5304	0.585032
162	N	0.476208	0.50202	0.430302
163	O	0.507262	0.536018	0.45736
164	O	0.432774	0.47462	0.449305
165	C	0.565483	0.374372	0.654288
166	C	0.421825	0.614198	0.357206
167	H	0.543752	0.341387	0.637331
168	H	0.438071	0.642762	0.37977
169	C	0.420978	0.860851	0.353622
170	C	0.440184	0.891642	0.392432
171	C	0.475491	0.946339	0.390295
172	C	0.490619	0.971771	0.347981
173	C	0.473676	0.939984	0.642135
174	C	0.43877	0.885467	0.645236
175	H	0.425968	0.863517	0.616681
176	C	0.525291	0.027522	0.342436
177	C	0.525468	0.065081	0.372058
178	C	0.558583	0.119115	0.3653
179	C	0.591975	0.13798	0.661119
180	C	0.590017	0.101036	0.63
181	C	0.556563	0.046607	0.636524
182	H	0.50007	0.053879	0.39829
183	H	0.557775	0.144585	0.388094
184	H	0.612692	0.113846	0.601828
185	H	0.429493	0.873953	0.423064
186	C	0.551797	0.008726	0.601422
187	C	0.493973	0.964118	0.597558
188	H	0.576517	0.992224	0.61059
189	H	0.564831	0.027651	0.568886
190	H	0.491936	0.935311	0.573423
191	H	0.469866	0.979984	0.585005
192	N	0.498224	0.974174	0.430285
193	O	0.46423	0.971245	0.45734
194	O	0.525596	0.958108	0.449288
195	C	0.625844	0.191146	0.654304
196	C	0.385944	0.807666	0.357126
197	H	0.658842	0.20241	0.637361
198	H	0.357447	0.795356	0.379753
199	C	0.13934	0.560144	0.353622
200	C	0.108558	0.548551	0.392438
201	C	0.053865	0.529188	0.390315
202	C	0.028428	0.518917	0.348004
203	C	0.060198	0.533716	0.642149
204	C	0.114717	0.553322	0.645239
205	H	0.136659	0.562461	0.616681
206	C	0.972677	0.497837	0.342473
207	C	0.935128	0.460487	0.372118
208	C	0.881091	0.439525	0.365347
209	C	0.862214	0.45403	0.661159
210	C	0.899152	0.489032	0.63004
211	C	0.953582	0.510017	0.636564
212	H	0.946329	0.446248	0.39832
213	H	0.85563	0.413238	0.388134
214	H	0.886336	0.498872	0.601862
215	H	0.126259	0.555576	0.42307
216	C	0.991457	0.54311	0.601448
217	C	0.036053	0.529882	0.597578
218	H	0.007972	0.584341	0.610607
219	H	0.972523	0.537217	0.568916
220	H	0.06486	0.556647	0.573437
221	H	0.020178	0.48991	0.585029
222	N	0.026056	0.524127	0.430312
223	O	0.028967	0.493054	0.45737
224	O	0.04216	0.567577	0.449308
225	C	0.809044	0.434722	0.654348
226	C	0.192525	0.578295	0.357119
227	H	0.797769	0.45641	0.637341
228	H	0.204837	0.562108	0.379743
229	C	0.3598	0.637533	0.667193
230	C	0.304575	0.611662	0.666683
231	C	0.277893	0.640387	0.667193
232	C	0.307249	0.695613	0.66668
233	C	0.362657	0.722292	0.6672
234	C	0.388529	0.69294	0.666676
235	H	0.288151	0.71665	0.666393
236	H	0.428664	0.712032	0.666416
237	H	0.283535	0.571525	0.666403
238	N	0.382654	0.608471	0.66725
239	N	0.225977	0.617519	0.667213
240	N	0.391705	0.77421	0.66722
241	C	0.636835	0.359046	0.66584
242	C	0.692073	0.388403	0.666293
243	C	0.722382	0.363361	0.66594
244	C	0.696502	0.308124	0.666316
245	C	0.641151	0.277814	0.66585
246	C	0.611795	0.303696	0.66626
247	H	0.718233	0.289801	0.667773
248	H	0.571738	0.281965	0.667677
249	H	0.710396	0.428457	0.667757
250	N	0.611108	0.385312	0.668297
251	N	0.774377	0.389107	0.668393
252	N	0.614886	0.22582	0.668307
253	C	0.440055	0.579232	0.687
254	C	0.451652	0.560022	0.725803
255	C	0.471086	0.524754	0.723653
256	C	0.481403	0.509649	0.681329
257	C	0.46653	0.526581	0.975494
258	C	0.44689	0.561465	0.978607
259	H	0.43771	0.574249	0.950059
260	C	0.502468	0.474965	0.675785
261	C	0.539865	0.474793	0.705386
262	C	0.560765	0.441661	0.698622
263	C	0.546205	0.408255	0.994444
264	C	0.511199	0.410212	0.963341
265	C	0.49026	0.443696	0.969869
266	H	0.554072	0.500185	0.731621
267	H	0.587043	0.442461	0.721406
268	H	0.50134	0.387553	0.935163
269	H	0.444658	0.570705	0.756442
270	C	0.457145	0.448471	0.93477
271	C	0.470366	0.506293	0.930916
272	H	0.41592	0.423753	0.943941
273	H	0.463028	0.435436	0.902231
274	H	0.443603	0.508343	0.906778
275	H	0.510343	0.5304	0.918364
276	N	0.476208	0.50202	0.763633
277	O	0.507262	0.536018	0.790691
278	O	0.432774	0.47462	0.78264
279	C	0.565483	0.374372	0.987622
280	C	0.421825	0.614198	0.69054
281	H	0.543752	0.341387	0.970663
282	H	0.438071	0.642762	0.713101
283	C	0.420978	0.860851	0.686953
284	C	0.440184	0.891642	0.725767
285	C	0.475491	0.946339	0.72363
286	C	0.490619	0.971771	0.681312
287	C	0.473676	0.939984	0.975467
288	C	0.43877	0.885467	0.978567
289	H	0.425968	0.863517	0.950012
290	C	0.525291	0.027522	0.675771
291	C	0.525468	0.065081	0.70539
292	C	0.558583	0.119115	0.698635
293	C	0.591975	0.13798	0.994454
294	C	0.590017	0.101036	0.963331
295	C	0.556563	0.046607	0.969856
296	H	0.50007	0.053879	0.731621
297	H	0.557775	0.144585	0.721426
298	H	0.612692	0.113846	0.935163
299	H	0.429493	0.873953	0.756399
300	C	0.551797	0.008726	0.934753
301	C	0.493973	0.964118	0.930892
302	H	0.576517	0.992224	0.943925
303	H	0.564831	0.027651	0.902217
304	H	0.491936	0.935311	0.906755
305	H	0.469866	0.979984	0.918337
306	N	0.498224	0.974174	0.763617
307	O	0.46423	0.971245	0.790671
308	O	0.525596	0.958108	0.782623
309	C	0.625844	0.191146	0.987636
310	C	0.385944	0.807666	0.690457
311	H	0.658842	0.20241	0.970693
312	H	0.357447	0.795356	0.713084
313	C	0.13934	0.560144	0.686953
314	C	0.108558	0.548551	0.725773
315	C	0.053865	0.529188	0.723646
316	C	0.028428	0.518917	0.681336
317	C	0.060198	0.533716	0.975484
318	C	0.114717	0.553322	0.978574
319	H	0.136659	0.562461	0.950016
320	C	0.972677	0.497837	0.675808
321	C	0.935128	0.460487	0.705453
322	C	0.881091	0.439525	0.698679
323	C	0.862214	0.45403	0.99449
324	C	0.899152	0.489032	0.963371
325	C	0.953582	0.510017	0.969896
326	H	0.946329	0.446248	0.731654
327	H	0.85563	0.413238	0.721466
328	H	0.886336	0.498872	0.935193
329	H	0.126259	0.555576	0.756402
330	C	0.991457	0.54311	0.93478
331	C	0.036053	0.529882	0.930912
332	H	0.007972	0.584341	0.943941
333	H	0.972523	0.537217	0.902247
334	H	0.06486	0.556647	0.906772
335	H	0.020178	0.48991	0.91836
336	N	0.026056	0.524127	0.763647
337	O	0.028967	0.493054	0.790701
338	O	0.04216	0.567577	0.78264
339	C	0.809044	0.434722	0.987679
340	C	0.192525	0.578295	0.69045
341	H	0.797769	0.45641	0.970673
342	H	0.204837	0.562108	0.713074
