data_C432H216N144_2018-02-15_10:37:00
#******************************************
#
# CIF file created by Zeo++
# Zeo++ is an open source package to
# analyze microporous materials
#
#*******************************************

_cell_length_a		43.7624   
_cell_length_b		43.7624   
_cell_length_c		29.6794   
_cell_angle_alpha		90   
_cell_angle_beta		90   
_cell_angle_gamma		120   

_symmetry_space_group_name_H-M		'P1'
_symmetry_Int_Tables_number		1
_symmetry_cell_setting		Monoclinic

loop_
_symmetry_equiv_pos_as_xyz
'+x,+y,+z'

loop_
_atom_site_label
_atom_site_type_symbol
_atom_site_fract_x
_atom_site_fract_y
_atom_site_fract_z
1	C	0.101736	0.302219	0.338289
2	C	0.083102	0.292897	0.297149
3	C	0.045926	0.274308	0.296845
4	C	0.026932	0.264814	0.337982
5	N	0.046213	0.274461	0.043473
6	C	0.082032	0.292371	0.045245
7	H	0.094219	0.298469	0.075988
8	H	0.096416	0.299551	0.267125
9	H	0.033132	0.267907	0.266499
10	C	0.101736	0.302219	0.671624
11	C	0.083102	0.292897	0.630481
12	C	0.045926	0.274308	0.630178
13	C	0.026932	0.264814	0.671318
14	N	0.046213	0.274461	0.376807
15	C	0.082032	0.292371	0.378579
16	H	0.094219	0.298469	0.409321
17	H	0.096416	0.299551	0.60046
18	H	0.033132	0.267907	0.59983
19	C	0.101736	0.302219	0.004957
20	C	0.083102	0.292897	0.963817
21	C	0.045926	0.274308	0.96351
22	C	0.026932	0.264814	0.00465
23	N	0.046213	0.274461	0.710139
24	C	0.082032	0.292371	0.711912
25	H	0.094219	0.298469	0.742653
26	H	0.096416	0.299551	0.933793
27	H	0.033132	0.267907	0.933166
28	C	0.101736	0.802219	0.338289
29	C	0.083102	0.792897	0.297149
30	C	0.045925	0.774308	0.296845
31	C	0.026933	0.764814	0.337982
32	N	0.046212	0.774461	0.043473
33	C	0.082033	0.792372	0.045245
34	H	0.094219	0.798469	0.075988
35	H	0.096415	0.799551	0.267125
36	H	0.033132	0.767907	0.266499
37	C	0.101736	0.802219	0.671624
38	C	0.083102	0.792897	0.630481
39	C	0.045925	0.774308	0.630178
40	C	0.026933	0.764814	0.671318
41	N	0.046212	0.774461	0.376807
42	C	0.082033	0.792372	0.378579
43	H	0.094219	0.798469	0.409321
44	H	0.096415	0.799551	0.60046
45	H	0.033132	0.767907	0.59983
46	C	0.101736	0.802219	0.004957
47	C	0.083102	0.792897	0.963817
48	C	0.045925	0.774308	0.96351
49	C	0.026933	0.764814	0.00465
50	N	0.046212	0.774461	0.710139
51	C	0.082033	0.792372	0.711912
52	H	0.094219	0.798469	0.742653
53	H	0.096415	0.799551	0.933793
54	H	0.033132	0.767907	0.933166
55	C	0.192746	0.374692	0.005696
56	N	0.156884	0.356621	0.005575
57	C	0.138811	0.320757	0.005697
58	N	0.156883	0.302965	0.005575
59	C	0.192747	0.320757	0.005697
60	C	0.192746	0.374692	0.33903
61	N	0.156884	0.356621	0.338909
62	C	0.138811	0.320757	0.33903
63	N	0.156883	0.302965	0.338909
64	C	0.192747	0.320757	0.33903
65	C	0.192746	0.374692	0.672362
66	N	0.156884	0.356621	0.672241
67	C	0.138811	0.320757	0.672362
68	N	0.156883	0.302965	0.672241
69	C	0.192747	0.320757	0.672362
70	C	0.192746	0.874692	0.005696
71	N	0.156882	0.856618	0.005575
72	C	0.13881	0.820757	0.005697
73	N	0.156882	0.802965	0.005575
74	C	0.192747	0.820757	0.005697
75	C	0.192746	0.874692	0.33903
76	N	0.156882	0.856618	0.338909
77	C	0.13881	0.820757	0.33903
78	N	0.156882	0.802965	0.338909
79	C	0.192747	0.820757	0.33903
80	C	0.192746	0.874692	0.672362
81	N	0.156882	0.856618	0.672241
82	C	0.13881	0.820757	0.672362
83	N	0.156882	0.802965	0.672241
84	C	0.192747	0.820757	0.672362
85	N	0.210536	0.356618	0.005574
86	C	0.211284	0.302219	0.338289
87	C	0.220607	0.292907	0.297149
88	C	0.239195	0.274318	0.296845
89	N	0.239043	0.274453	0.043473
90	C	0.22113	0.292361	0.045245
91	H	0.215034	0.298451	0.075987
92	H	0.213953	0.299567	0.267126
93	C	0.211283	0.411767	0.338289
94	C	0.220594	0.4304	0.297149
95	C	0.239182	0.467577	0.296845
96	N	0.239047	0.46729	0.043473
97	C	0.221137	0.431469	0.045244
98	H	0.215048	0.419284	0.075987
99	H	0.213935	0.417089	0.267125
100	N	0.210536	0.356618	0.338909
101	C	0.211284	0.302219	0.671624
102	C	0.220607	0.292907	0.630481
103	C	0.239195	0.274318	0.630178
104	N	0.239043	0.274453	0.376807
105	C	0.22113	0.292361	0.378579
106	H	0.215034	0.298451	0.409321
107	H	0.213953	0.299567	0.60046
108	C	0.211283	0.411767	0.671624
109	C	0.220594	0.4304	0.630481
110	C	0.239182	0.467577	0.630178
111	N	0.239047	0.46729	0.376807
112	C	0.221137	0.431469	0.378576
113	H	0.215048	0.419284	0.409321
114	H	0.213935	0.417089	0.600457
115	N	0.210536	0.356618	0.672241
116	C	0.211284	0.302219	0.004957
117	C	0.220607	0.292907	0.963817
118	C	0.239195	0.274318	0.96351
119	N	0.239043	0.274453	0.710139
120	C	0.22113	0.292361	0.711912
121	H	0.215034	0.298451	0.742653
122	H	0.213953	0.299567	0.933793
123	C	0.211283	0.411767	0.004957
124	C	0.220594	0.4304	0.963817
125	C	0.239182	0.467577	0.96351
126	N	0.239047	0.46729	0.710139
127	C	0.221137	0.431469	0.711912
128	H	0.215048	0.419284	0.742653
129	H	0.213935	0.417089	0.933793
130	N	0.210536	0.856618	0.005574
131	C	0.211284	0.802219	0.338289
132	C	0.220607	0.792907	0.29715
133	C	0.239195	0.774319	0.296845
134	N	0.239042	0.774453	0.043473
135	C	0.22113	0.792361	0.045245
136	H	0.215034	0.798451	0.075987
137	H	0.213953	0.799567	0.267126
138	C	0.211283	0.911767	0.338289
139	C	0.220593	0.9304	0.297149
140	C	0.239182	0.967578	0.296845
141	N	0.239047	0.96729	0.043473
142	C	0.221136	0.931469	0.045244
143	H	0.215048	0.919284	0.075987
144	H	0.213935	0.917089	0.267125
145	N	0.210536	0.856618	0.338909
146	C	0.211284	0.802219	0.671624
147	C	0.220607	0.792907	0.630481
148	C	0.239195	0.774319	0.630178
149	N	0.239042	0.774453	0.376807
150	C	0.22113	0.792361	0.378579
151	H	0.215034	0.798451	0.409321
152	H	0.213953	0.799567	0.60046
153	C	0.211283	0.911767	0.671624
154	C	0.220593	0.9304	0.630481
155	C	0.239182	0.967578	0.630178
156	N	0.239047	0.96729	0.376807
157	C	0.221136	0.931469	0.378576
158	H	0.215048	0.919284	0.409321
159	H	0.213935	0.917089	0.600457
160	N	0.210536	0.856618	0.672241
161	C	0.211284	0.802219	0.004957
162	C	0.220607	0.792907	0.963817
163	C	0.239195	0.774319	0.96351
164	N	0.239042	0.774453	0.710139
165	C	0.22113	0.792361	0.711912
166	H	0.215034	0.798451	0.742653
167	H	0.213953	0.799567	0.933793
168	C	0.211283	0.911767	0.004957
169	C	0.220593	0.9304	0.963817
170	C	0.239182	0.967578	0.96351
171	N	0.239047	0.96729	0.710139
172	C	0.221136	0.931469	0.711912
173	H	0.215048	0.919284	0.742653
174	H	0.213935	0.917089	0.933793
175	C	0.323457	0.136111	0.005454
176	N	0.35932	0.154182	0.005577
177	C	0.377393	0.190045	0.005454
178	N	0.359323	0.207837	0.005578
179	C	0.32346	0.190048	0.005454
180	N	0.305668	0.154185	0.005577
181	C	0.248689	0.26482	0.337982
182	C	0.267521	0.245988	0.006547
183	C	0.277021	0.236486	0.047679
184	C	0.295609	0.217898	0.04736
185	C	0.304924	0.208586	0.006212
186	C	0.29507	0.218445	0.299265
187	N	0.27716	0.236354	0.301052
188	H	0.301161	0.212358	0.268517
189	H	0.270625	0.242879	0.078029
190	H	0.302268	0.211236	0.077378
191	H	0.245597	0.267928	0.266499
192	C	0.248683	0.48657	0.337982
193	C	0.267516	0.024233	0.006547
194	C	0.277019	0.043234	0.047679
195	C	0.295608	0.080412	0.04736
196	C	0.30492	0.099037	0.006212
197	C	0.295062	0.079325	0.299265
198	N	0.277153	0.043506	0.301052
199	H	0.301151	0.091503	0.268517
200	H	0.270627	0.030446	0.078029
201	H	0.302271	0.093733	0.077378
202	H	0.245576	0.480372	0.266499
203	C	0.489271	0.245982	0.006547
204	C	0.47027	0.236483	0.047679
205	C	0.433093	0.217895	0.04736
206	C	0.414467	0.20858	0.006212
207	C	0.434178	0.218434	0.299265
208	N	0.469999	0.236344	0.301052
209	H	0.422002	0.212343	0.268517
210	H	0.483058	0.242879	0.078029
211	H	0.419771	0.211236	0.077379
212	C	0.323457	0.136111	0.338787
213	N	0.35932	0.154182	0.338912
214	C	0.377393	0.190045	0.338787
215	N	0.359323	0.207837	0.338912
216	C	0.32346	0.190048	0.338787
217	N	0.305668	0.154185	0.338912
218	C	0.248689	0.26482	0.671318
219	C	0.267521	0.245988	0.339879
220	C	0.277021	0.236486	0.381012
221	C	0.295609	0.217898	0.380692
222	C	0.304924	0.208586	0.339545
223	C	0.29507	0.218445	0.632597
224	N	0.27716	0.236354	0.634386
225	H	0.301161	0.212358	0.601849
226	H	0.270625	0.242879	0.411363
227	H	0.302268	0.211236	0.410713
228	H	0.245597	0.267928	0.599834
229	C	0.248683	0.48657	0.671318
230	C	0.267516	0.024233	0.339879
231	C	0.277019	0.043234	0.381012
232	C	0.295608	0.080412	0.380692
233	C	0.30492	0.099037	0.339545
234	C	0.295062	0.079325	0.632597
235	N	0.277153	0.043506	0.634386
236	H	0.301151	0.091503	0.601849
237	H	0.270627	0.030446	0.411363
238	H	0.302271	0.093733	0.410713
239	H	0.245576	0.480372	0.59983
240	C	0.489271	0.245982	0.339879
241	C	0.47027	0.236483	0.381012
242	C	0.433093	0.217895	0.380695
243	C	0.414467	0.20858	0.339545
244	C	0.434178	0.218434	0.632597
245	N	0.469999	0.236344	0.634386
246	H	0.422002	0.212343	0.601852
247	H	0.483058	0.242879	0.411363
248	H	0.419771	0.211236	0.410713
249	C	0.323457	0.136111	0.67212
250	N	0.35932	0.154182	0.672244
251	C	0.377393	0.190045	0.67212
252	N	0.359323	0.207837	0.672244
253	C	0.32346	0.190048	0.67212
254	N	0.305668	0.154185	0.672244
255	C	0.248689	0.26482	0.00465
256	C	0.267521	0.245988	0.673215
257	C	0.277021	0.236486	0.714344
258	C	0.295609	0.217898	0.714027
259	C	0.304924	0.208586	0.672878
260	C	0.29507	0.218445	0.965933
261	N	0.27716	0.236354	0.967719
262	H	0.301161	0.212358	0.935184
263	H	0.270625	0.242879	0.744695
264	H	0.302268	0.211236	0.744045
265	H	0.245597	0.267928	0.933166
266	C	0.248683	0.48657	0.00465
267	C	0.267516	0.024233	0.673215
268	C	0.277019	0.043234	0.714344
269	C	0.295608	0.080412	0.714027
270	C	0.30492	0.099037	0.672878
271	C	0.295062	0.079325	0.965933
272	N	0.277153	0.043506	0.967719
273	H	0.301151	0.091503	0.935184
274	H	0.270627	0.030446	0.744695
275	H	0.302271	0.093733	0.744045
276	H	0.245576	0.480372	0.933166
277	C	0.489271	0.245982	0.673215
278	C	0.47027	0.236483	0.714344
279	C	0.433093	0.217895	0.714027
280	C	0.414467	0.20858	0.672878
281	C	0.434178	0.218434	0.965933
282	N	0.469999	0.236344	0.967719
283	H	0.422002	0.212343	0.935184
284	H	0.483058	0.242879	0.744695
285	H	0.419771	0.211236	0.744045
286	C	0.323457	0.636111	0.005454
287	N	0.35932	0.654182	0.005577
288	C	0.377393	0.690045	0.005454
289	N	0.359322	0.707837	0.005578
290	C	0.32346	0.690048	0.005454
291	N	0.305668	0.654185	0.005577
292	C	0.248689	0.76482	0.337982
293	C	0.267521	0.745988	0.006547
294	C	0.277021	0.736487	0.047679
295	C	0.295609	0.717898	0.04736
296	C	0.304924	0.708587	0.006212
297	C	0.29507	0.718444	0.299265
298	N	0.27716	0.736355	0.301052
299	H	0.30116	0.712357	0.268517
300	H	0.270624	0.742877	0.078029
301	H	0.302268	0.711236	0.077378
302	H	0.245597	0.767928	0.266499
303	C	0.248682	0.98657	0.337982
304	C	0.267516	0.524233	0.006547
305	C	0.27702	0.543236	0.047679
306	C	0.295608	0.58041	0.04736
307	C	0.304919	0.599036	0.006212
308	C	0.295062	0.579326	0.299265
309	N	0.277152	0.543507	0.301052
310	H	0.30115	0.591503	0.268517
311	H	0.270626	0.530447	0.078029
312	H	0.30227	0.593733	0.077378
313	H	0.245575	0.980369	0.266499
314	C	0.489271	0.745983	0.006547
315	C	0.47027	0.736484	0.047679
316	C	0.433093	0.717895	0.04736
317	C	0.414467	0.708581	0.006212
318	C	0.434179	0.718434	0.299265
319	N	0.469998	0.736344	0.301052
320	H	0.422001	0.712344	0.268517
321	H	0.483058	0.74288	0.078029
322	H	0.419772	0.711236	0.077379
323	C	0.323457	0.636111	0.338787
324	N	0.35932	0.654182	0.338912
325	C	0.377393	0.690045	0.338787
326	N	0.359322	0.707837	0.338912
327	C	0.32346	0.690048	0.338787
328	N	0.305668	0.654185	0.338912
329	C	0.248689	0.76482	0.671318
330	C	0.267521	0.745988	0.339879
331	C	0.277021	0.736487	0.381012
332	C	0.295609	0.717898	0.380692
333	C	0.304924	0.708587	0.339545
334	C	0.29507	0.718444	0.632597
335	N	0.27716	0.736355	0.634386
336	H	0.30116	0.712357	0.601849
337	H	0.270624	0.742877	0.411363
338	H	0.302268	0.711236	0.410713
339	H	0.245597	0.767928	0.599834
340	C	0.248682	0.98657	0.671318
341	C	0.267516	0.524233	0.339879
342	C	0.27702	0.543236	0.381012
343	C	0.295608	0.58041	0.380692
344	C	0.304919	0.599036	0.339545
345	C	0.295062	0.579326	0.632597
346	N	0.277152	0.543507	0.634386
347	H	0.30115	0.591503	0.601849
348	H	0.270626	0.530447	0.411363
349	H	0.30227	0.593733	0.410713
350	H	0.245575	0.980369	0.59983
351	C	0.489271	0.745983	0.339879
352	C	0.47027	0.736484	0.381012
353	C	0.433093	0.717895	0.380695
354	C	0.414467	0.708581	0.339545
355	C	0.434179	0.718434	0.632597
356	N	0.469998	0.736344	0.634386
357	H	0.422001	0.712344	0.601852
358	H	0.483058	0.74288	0.411363
359	H	0.419772	0.711236	0.410713
360	C	0.323457	0.636111	0.67212
361	N	0.35932	0.654182	0.672244
362	C	0.377393	0.690045	0.67212
363	N	0.359322	0.707837	0.672244
364	C	0.32346	0.690048	0.67212
365	N	0.305668	0.654185	0.672244
366	C	0.248689	0.76482	0.00465
367	C	0.267521	0.745988	0.673215
368	C	0.277021	0.736487	0.714344
369	C	0.295609	0.717898	0.714027
370	C	0.304924	0.708587	0.672878
371	C	0.29507	0.718444	0.965933
372	N	0.27716	0.736355	0.967719
373	H	0.30116	0.712357	0.935184
374	H	0.270624	0.742877	0.744695
375	H	0.302268	0.711236	0.744045
376	H	0.245597	0.767928	0.933166
377	C	0.248682	0.98657	0.00465
378	C	0.267516	0.524233	0.673215
379	C	0.27702	0.543236	0.714344
380	C	0.295608	0.58041	0.714027
381	C	0.304919	0.599036	0.672878
382	C	0.295062	0.579326	0.965933
383	N	0.277152	0.543507	0.967719
384	H	0.30115	0.591503	0.935184
385	H	0.270626	0.530447	0.744695
386	H	0.30227	0.593733	0.744045
387	H	0.245575	0.980369	0.933166
388	C	0.489271	0.745983	0.673215
389	C	0.47027	0.736484	0.714344
390	C	0.433093	0.717895	0.714027
391	C	0.414467	0.708581	0.672878
392	C	0.434179	0.718434	0.965933
393	N	0.469998	0.736344	0.967719
394	H	0.422001	0.712344	0.935184
395	H	0.483058	0.74288	0.744695
396	H	0.419772	0.711236	0.744045
397	C	0.692746	0.374692	0.005696
398	N	0.656883	0.356621	0.005575
399	C	0.638812	0.320757	0.005697
400	N	0.656882	0.302965	0.005575
401	C	0.692747	0.320757	0.005697
402	N	0.710535	0.356618	0.005574
403	C	0.823457	0.136111	0.005454
404	N	0.85932	0.154182	0.005577
405	C	0.877393	0.190045	0.005454
406	N	0.859323	0.207837	0.005578
407	C	0.82346	0.190048	0.005454
408	N	0.805668	0.154185	0.005577
409	C	0.711284	0.302219	0.338289
410	C	0.720606	0.292907	0.297149
411	C	0.739197	0.274318	0.296845
412	C	0.74869	0.26482	0.337982
413	N	0.739042	0.274453	0.043473
414	C	0.721131	0.292361	0.045245
415	C	0.767522	0.245988	0.006547
416	C	0.777021	0.236486	0.047679
417	C	0.795609	0.217898	0.04736
418	C	0.804924	0.208586	0.006212
419	C	0.795072	0.218445	0.299265
420	N	0.777161	0.236354	0.301052
421	H	0.801161	0.212358	0.268517
422	H	0.770625	0.242879	0.078029
423	H	0.802268	0.211236	0.077378
424	H	0.715035	0.298451	0.075987
425	H	0.713953	0.299567	0.267126
426	H	0.745596	0.267928	0.266499
427	C	0.711283	0.411767	0.338289
428	C	0.720595	0.4304	0.297149
429	C	0.739184	0.467577	0.296845
430	C	0.748685	0.48657	0.337982
431	N	0.739047	0.46729	0.043473
432	C	0.721139	0.431469	0.045244
433	C	0.767516	0.024233	0.006547
434	C	0.777019	0.043234	0.047679
435	C	0.79561	0.080412	0.04736
436	C	0.80492	0.099037	0.006212
437	C	0.795062	0.079325	0.299265
438	N	0.777153	0.043506	0.301052
439	H	0.801151	0.091503	0.268517
440	H	0.770627	0.030446	0.078029
441	H	0.802271	0.093733	0.077378
442	H	0.715048	0.419284	0.075987
443	H	0.713935	0.417089	0.267125
444	H	0.745576	0.480372	0.266499
445	C	0.601736	0.302219	0.338289
446	C	0.583102	0.292897	0.297149
447	C	0.545927	0.274308	0.296845
448	C	0.526933	0.264814	0.337982
449	N	0.546214	0.274461	0.043473
450	C	0.582032	0.292371	0.045245
451	C	0.989271	0.245982	0.006547
452	C	0.97027	0.236483	0.047679
453	C	0.933093	0.217895	0.04736
454	C	0.914467	0.20858	0.006212
455	C	0.934178	0.218434	0.299265
456	N	0.969999	0.236344	0.301052
457	H	0.922002	0.212343	0.268517
458	H	0.983058	0.242879	0.078029
459	H	0.919771	0.211236	0.077379
460	H	0.594219	0.298469	0.075988
461	H	0.596417	0.299551	0.267125
462	H	0.533134	0.267907	0.266499
463	C	0.692746	0.374692	0.33903
464	N	0.656883	0.356621	0.338909
465	C	0.638812	0.320757	0.33903
466	N	0.656882	0.302965	0.338909
467	C	0.692747	0.320757	0.33903
468	N	0.710535	0.356618	0.338909
469	C	0.823457	0.136111	0.338787
470	N	0.85932	0.154182	0.338912
471	C	0.877393	0.190045	0.338787
472	N	0.859323	0.207837	0.338912
473	C	0.82346	0.190048	0.338787
474	N	0.805668	0.154185	0.338912
475	C	0.711284	0.302219	0.671624
476	C	0.720606	0.292907	0.630481
477	C	0.739197	0.274318	0.630178
478	C	0.74869	0.26482	0.671318
479	N	0.739042	0.274453	0.376807
480	C	0.721131	0.292361	0.378579
481	C	0.767522	0.245988	0.339879
482	C	0.777021	0.236486	0.381012
483	C	0.795609	0.217898	0.380692
484	C	0.804924	0.208586	0.339545
485	C	0.795072	0.218445	0.632597
486	N	0.777161	0.236354	0.634386
487	H	0.801161	0.212358	0.601849
488	H	0.770625	0.242879	0.411363
489	H	0.802268	0.211236	0.410713
490	H	0.715035	0.298451	0.409321
491	H	0.713953	0.299567	0.60046
492	H	0.745596	0.267928	0.599834
493	C	0.711283	0.411767	0.671624
494	C	0.720595	0.4304	0.630481
495	C	0.739184	0.467577	0.630178
496	C	0.748685	0.48657	0.671318
497	N	0.739047	0.46729	0.376807
498	C	0.721139	0.431469	0.378576
499	C	0.767516	0.024233	0.339879
500	C	0.777019	0.043234	0.381012
501	C	0.79561	0.080412	0.380692
502	C	0.80492	0.099037	0.339545
503	C	0.795062	0.079325	0.632597
504	N	0.777153	0.043506	0.634386
505	H	0.801151	0.091503	0.601849
506	H	0.770627	0.030446	0.411363
507	H	0.802271	0.093733	0.410713
508	H	0.715048	0.419284	0.409321
509	H	0.713935	0.417089	0.600457
510	H	0.745576	0.480372	0.59983
511	C	0.601736	0.302219	0.671624
512	C	0.583102	0.292897	0.630481
513	C	0.545927	0.274308	0.630178
514	C	0.526933	0.264814	0.671318
515	N	0.546214	0.274461	0.376807
516	C	0.582032	0.292371	0.378579
517	C	0.989271	0.245982	0.339879
518	C	0.97027	0.236483	0.381012
519	C	0.933093	0.217895	0.380695
520	C	0.914467	0.20858	0.339545
521	C	0.934178	0.218434	0.632597
522	N	0.969999	0.236344	0.634386
523	H	0.922002	0.212343	0.601852
524	H	0.983058	0.242879	0.411363
525	H	0.919771	0.211236	0.410713
526	H	0.594219	0.298469	0.409321
527	H	0.596417	0.299551	0.60046
528	H	0.533134	0.267907	0.59983
529	C	0.692746	0.374692	0.672362
530	N	0.656883	0.356621	0.672241
531	C	0.638812	0.320757	0.672362
532	N	0.656882	0.302965	0.672241
533	C	0.692747	0.320757	0.672362
534	N	0.710535	0.356618	0.672241
535	C	0.823457	0.136111	0.67212
536	N	0.85932	0.154182	0.672244
537	C	0.877393	0.190045	0.67212
538	N	0.859323	0.207837	0.672244
539	C	0.82346	0.190048	0.67212
540	N	0.805668	0.154185	0.672244
541	C	0.711284	0.302219	0.004957
542	C	0.720606	0.292907	0.963817
543	C	0.739197	0.274318	0.96351
544	C	0.74869	0.26482	0.00465
545	N	0.739042	0.274453	0.710139
546	C	0.721131	0.292361	0.711912
547	C	0.767522	0.245988	0.673215
548	C	0.777021	0.236486	0.714344
549	C	0.795609	0.217898	0.714027
550	C	0.804924	0.208586	0.672878
551	C	0.795072	0.218445	0.965933
552	N	0.777161	0.236354	0.967719
553	H	0.801161	0.212358	0.935184
554	H	0.770625	0.242879	0.744695
555	H	0.802268	0.211236	0.744045
556	H	0.715035	0.298451	0.742653
557	H	0.713953	0.299567	0.933793
558	H	0.745596	0.267928	0.933166
559	C	0.711283	0.411767	0.004957
560	C	0.720595	0.4304	0.963817
561	C	0.739184	0.467577	0.96351
562	C	0.748685	0.48657	0.00465
563	N	0.739047	0.46729	0.710139
564	C	0.721139	0.431469	0.711912
565	C	0.767516	0.024233	0.673215
566	C	0.777019	0.043234	0.714344
567	C	0.79561	0.080412	0.714027
568	C	0.80492	0.099037	0.672878
569	C	0.795062	0.079325	0.965933
570	N	0.777153	0.043506	0.967719
571	H	0.801151	0.091503	0.935184
572	H	0.770627	0.030446	0.744695
573	H	0.802271	0.093733	0.744045
574	H	0.715048	0.419284	0.742653
575	H	0.713935	0.417089	0.933793
576	H	0.745576	0.480372	0.933166
577	C	0.601736	0.302219	0.004957
578	C	0.583102	0.292897	0.963817
579	C	0.545927	0.274308	0.96351
580	C	0.526933	0.264814	0.00465
581	N	0.546214	0.274461	0.710139
582	C	0.582032	0.292371	0.711912
583	C	0.989271	0.245982	0.673215
584	C	0.97027	0.236483	0.714344
585	C	0.933093	0.217895	0.714027
586	C	0.914467	0.20858	0.672878
587	C	0.934178	0.218434	0.965933
588	N	0.969999	0.236344	0.967719
589	H	0.922002	0.212343	0.935184
590	H	0.983058	0.242879	0.744695
591	H	0.919771	0.211236	0.744045
592	H	0.594219	0.298469	0.742653
593	H	0.596417	0.299551	0.933793
594	H	0.533134	0.267907	0.933166
595	C	0.692746	0.874692	0.005696
596	N	0.656882	0.856618	0.005575
597	C	0.638811	0.820757	0.005697
598	N	0.656882	0.802965	0.005575
599	C	0.692747	0.820757	0.005697
600	N	0.710535	0.856618	0.005574
601	C	0.823457	0.636111	0.005454
602	N	0.85932	0.654182	0.005577
603	C	0.877393	0.690045	0.005454
604	N	0.859323	0.707837	0.005578
605	C	0.82346	0.690048	0.005454
606	N	0.805668	0.654185	0.005577
607	C	0.711284	0.802219	0.338289
608	C	0.720606	0.792907	0.29715
609	C	0.739197	0.774319	0.296845
610	C	0.74869	0.76482	0.337982
611	N	0.739042	0.774453	0.043473
612	C	0.721131	0.792361	0.045245
613	C	0.767522	0.745988	0.006547
614	C	0.777021	0.736487	0.047679
615	C	0.795609	0.717898	0.04736
616	C	0.804924	0.708587	0.006212
617	C	0.795071	0.718444	0.299265
618	N	0.777161	0.736355	0.301052
619	H	0.801161	0.712357	0.268517
620	H	0.770624	0.742877	0.078029
621	H	0.802268	0.711236	0.077378
622	H	0.715035	0.798451	0.075987
623	H	0.713953	0.799567	0.267126
624	H	0.745596	0.767928	0.266499
625	C	0.711283	0.911767	0.338289
626	C	0.720595	0.9304	0.297149
627	C	0.739184	0.967578	0.296845
628	C	0.748685	0.98657	0.337982
629	N	0.739047	0.96729	0.043473
630	C	0.721139	0.931469	0.045244
631	C	0.767516	0.524233	0.006547
632	C	0.77702	0.543236	0.047679
633	C	0.795607	0.58041	0.04736
634	C	0.80492	0.599036	0.006212
635	C	0.795063	0.579326	0.299265
636	N	0.777153	0.543507	0.301052
637	H	0.801151	0.591503	0.268517
638	H	0.770627	0.530447	0.078029
639	H	0.80227	0.593733	0.077378
640	H	0.715048	0.919284	0.075987
641	H	0.713935	0.917089	0.267125
642	H	0.745575	0.980369	0.266499
643	C	0.601736	0.802219	0.338289
644	C	0.583102	0.792897	0.297149
645	C	0.545926	0.774308	0.296845
646	C	0.526933	0.764814	0.337982
647	N	0.546213	0.774461	0.043473
648	C	0.582033	0.792372	0.045245
649	C	0.989272	0.745983	0.006547
650	C	0.97027	0.736484	0.047679
651	C	0.933094	0.717895	0.04736
652	C	0.914468	0.708581	0.006212
653	C	0.934178	0.718434	0.299265
654	N	0.969999	0.736344	0.301052
655	H	0.922002	0.712344	0.268517
656	H	0.983059	0.74288	0.078029
657	H	0.919771	0.711236	0.077379
658	H	0.594219	0.798469	0.075988
659	H	0.596416	0.799551	0.267125
660	H	0.533133	0.767907	0.266499
661	C	0.692746	0.874692	0.33903
662	N	0.656882	0.856618	0.338909
663	C	0.638811	0.820757	0.33903
664	N	0.656882	0.802965	0.338909
665	C	0.692747	0.820757	0.33903
666	N	0.710535	0.856618	0.338909
667	C	0.823457	0.636111	0.338787
668	N	0.85932	0.654182	0.338912
669	C	0.877393	0.690045	0.338787
670	N	0.859323	0.707837	0.338912
671	C	0.82346	0.690048	0.338787
672	N	0.805668	0.654185	0.338912
673	C	0.711284	0.802219	0.671624
674	C	0.720606	0.792907	0.630481
675	C	0.739197	0.774319	0.630178
676	C	0.74869	0.76482	0.671318
677	N	0.739042	0.774453	0.376807
678	C	0.721131	0.792361	0.378579
679	C	0.767522	0.745988	0.339879
680	C	0.777021	0.736487	0.381012
681	C	0.795609	0.717898	0.380692
682	C	0.804924	0.708587	0.339545
683	C	0.795071	0.718444	0.632597
684	N	0.777161	0.736355	0.634386
685	H	0.801161	0.712357	0.601849
686	H	0.770624	0.742877	0.411363
687	H	0.802268	0.711236	0.410713
688	H	0.715035	0.798451	0.409321
689	H	0.713953	0.799567	0.60046
690	H	0.745596	0.767928	0.599834
691	C	0.711283	0.911767	0.671624
692	C	0.720595	0.9304	0.630481
693	C	0.739184	0.967578	0.630178
694	C	0.748685	0.98657	0.671318
695	N	0.739047	0.96729	0.376807
696	C	0.721139	0.931469	0.378576
697	C	0.767516	0.524233	0.339879
698	C	0.77702	0.543236	0.381012
699	C	0.795607	0.58041	0.380692
700	C	0.80492	0.599036	0.339545
701	C	0.795063	0.579326	0.632597
702	N	0.777153	0.543507	0.634386
703	H	0.801151	0.591503	0.601849
704	H	0.770627	0.530447	0.411363
705	H	0.80227	0.593733	0.410713
706	H	0.715048	0.919284	0.409321
707	H	0.713935	0.917089	0.600457
708	H	0.745575	0.980369	0.59983
709	C	0.601736	0.802219	0.671624
710	C	0.583102	0.792897	0.630481
711	C	0.545926	0.774308	0.630178
712	C	0.526933	0.764814	0.671318
713	N	0.546213	0.774461	0.376807
714	C	0.582033	0.792372	0.378579
715	C	0.989272	0.745983	0.339879
716	C	0.97027	0.736484	0.381012
717	C	0.933094	0.717895	0.380695
718	C	0.914468	0.708581	0.339545
719	C	0.934178	0.718434	0.632597
720	N	0.969999	0.736344	0.634386
721	H	0.922002	0.712344	0.601852
722	H	0.983059	0.74288	0.411363
723	H	0.919771	0.711236	0.410713
724	H	0.594219	0.798469	0.409321
725	H	0.596416	0.799551	0.60046
726	H	0.533133	0.767907	0.59983
727	C	0.692746	0.874692	0.672362
728	N	0.656882	0.856618	0.672241
729	C	0.638811	0.820757	0.672362
730	N	0.656882	0.802965	0.672241
731	C	0.692747	0.820757	0.672362
732	N	0.710535	0.856618	0.672241
733	C	0.823457	0.636111	0.67212
734	N	0.85932	0.654182	0.672244
735	C	0.877393	0.690045	0.67212
736	N	0.859323	0.707837	0.672244
737	C	0.82346	0.690048	0.67212
738	N	0.805668	0.654185	0.672244
739	C	0.711284	0.802219	0.004957
740	C	0.720606	0.792907	0.963817
741	C	0.739197	0.774319	0.96351
742	C	0.74869	0.76482	0.00465
743	N	0.739042	0.774453	0.710139
744	C	0.721131	0.792361	0.711912
745	C	0.767522	0.745988	0.673215
746	C	0.777021	0.736487	0.714344
747	C	0.795609	0.717898	0.714027
748	C	0.804924	0.708587	0.672878
749	C	0.795071	0.718444	0.965933
750	N	0.777161	0.736355	0.967719
751	H	0.801161	0.712357	0.935184
752	H	0.770624	0.742877	0.744695
753	H	0.802268	0.711236	0.744045
754	H	0.715035	0.798451	0.742653
755	H	0.713953	0.799567	0.933793
756	H	0.745596	0.767928	0.933166
757	C	0.711283	0.911767	0.004957
758	C	0.720595	0.9304	0.963817
759	C	0.739184	0.967578	0.96351
760	C	0.748685	0.98657	0.00465
761	N	0.739047	0.96729	0.710139
762	C	0.721139	0.931469	0.711912
763	C	0.767516	0.524233	0.673215
764	C	0.77702	0.543236	0.714344
765	C	0.795607	0.58041	0.714027
766	C	0.80492	0.599036	0.672878
767	C	0.795063	0.579326	0.965933
768	N	0.777153	0.543507	0.967719
769	H	0.801151	0.591503	0.935184
770	H	0.770627	0.530447	0.744695
771	H	0.80227	0.593733	0.744045
772	H	0.715048	0.919284	0.742653
773	H	0.713935	0.917089	0.933793
774	H	0.745575	0.980369	0.933166
775	C	0.601736	0.802219	0.004957
776	C	0.583102	0.792897	0.963817
777	C	0.545926	0.774308	0.96351
778	C	0.526933	0.764814	0.00465
779	N	0.546213	0.774461	0.710139
780	C	0.582033	0.792372	0.711912
781	C	0.989272	0.745983	0.673215
782	C	0.97027	0.736484	0.714344
783	C	0.933094	0.717895	0.714027
784	C	0.914468	0.708581	0.672878
785	C	0.934178	0.718434	0.965933
786	N	0.969999	0.736344	0.967719
787	H	0.922002	0.712344	0.935184
788	H	0.983059	0.74288	0.744695
789	H	0.919771	0.711236	0.744045
790	H	0.594219	0.798469	0.742653
791	H	0.596416	0.799551	0.933793
792	H	0.533133	0.767907	0.933166
