data_C162H108N54O36_2018-02-15_10:45:56
#******************************************
#
# CIF file created by Zeo++
# Zeo++ is an open source package to
# analyze microporous materials
#
#*******************************************

_cell_length_a		29.4315   
_cell_length_b		29.4315   
_cell_length_c		29.9138   
_cell_angle_alpha		90   
_cell_angle_beta		90   
_cell_angle_gamma		120   

_symmetry_space_group_name_H-M		'P1'
_symmetry_Int_Tables_number		1
_symmetry_cell_setting		Monoclinic

loop_
_symmetry_equiv_pos_as_xyz
'+x,+y,+z'

loop_
_atom_site_label
_atom_site_type_symbol
_atom_site_fract_x
_atom_site_fract_y
_atom_site_fract_z
1	H	0.010598	0.519091	0.250153
2	H	0.010598	0.519091	0.583486
3	H	0.010598	0.519091	0.91682
4	C	0.028941	0.514995	0.00372
5	H	0.024585	0.505987	0.074057
6	C	0.028941	0.514995	0.337055
7	H	0.024585	0.505987	0.40739
8	C	0.028941	0.514995	0.670389
9	H	0.024585	0.505987	0.740724
10	C	0.36084	0.637784	0.005464
11	C	0.305603	0.613067	0.004977
12	C	0.27982	0.642755	0.005506
13	C	0.310339	0.697992	0.004998
14	C	0.36581	0.723776	0.005515
15	C	0.390528	0.693256	0.004988
16	H	0.291954	0.719719	0.004057
17	H	0.43064	0.711641	0.004032
18	H	0.283875	0.572955	0.004025
19	N	0.382688	0.607637	0.00405
20	N	0.227825	0.620914	0.004078
21	N	0.395963	0.775772	0.004084
22	C	0.640584	0.362086	0.012548
23	C	0.696008	0.389989	0.012951
24	C	0.72438	0.363012	0.012552
25	C	0.696859	0.30759	0.012948
26	C	0.641512	0.279216	0.012544
27	C	0.61361	0.306737	0.012949
28	H	0.717276	0.287829	0.013642
29	H	0.573435	0.286323	0.013644
30	H	0.715769	0.430164	0.013649
31	N	0.61381	0.387298	0.014334
32	N	0.776364	0.389792	0.014332
33	N	0.616298	0.227232	0.014329
34	C	0.442038	0.57831	0.018229
35	C	0.460169	0.561408	0.055069
36	C	0.483173	0.529888	0.047299
37	C	0.488609	0.514673	0.00372
38	C	0.4692	0.530323	0.300029
39	C	0.446462	0.562107	0.308034
40	H	0.433871	0.574665	0.28129
41	C	0.51735	0.487767	0.331872
42	C	0.498359	0.436116	0.014657
43	C	0.529389	0.412156	0.009045
44	C	0.579285	0.438635	0.321619
45	C	0.598831	0.490937	0.306039
46	C	0.567347	0.514434	0.311538
47	H	0.514689	0.374386	0.020034
48	H	0.581395	0.552192	0.300723
49	H	0.497613	0.51933	0.074057
50	N	0.448356	0.409139	0.035213
51	N	0.471504	0.515893	0.257206
52	H	0.457278	0.52638	0.232453
53	H	0.484512	0.492224	0.250155
54	N	0.646853	0.519938	0.286611
55	H	0.659372	0.555774	0.276657
56	H	0.671025	0.506764	0.283293
57	N	0.455334	0.576423	0.099067
58	O	0.45162	0.396929	0.074859
59	O	0.499314	0.602909	0.117529
60	O	0.417674	0.36818	0.014109
61	O	0.427192	0.537119	0.123027
62	C	0.606941	0.412246	0.315506
63	C	0.423957	0.613408	0.024034
64	H	0.443563	0.643583	0.044693
65	H	0.62241	0.413651	0.285567
66	C	0.425288	0.864452	0.018246
67	C	0.442195	0.899491	0.055082
68	C	0.473711	0.95401	0.047305
69	C	0.488925	0.974655	0.003724
70	C	0.47327	0.939592	0.300037
71	C	0.441483	0.885069	0.308048
72	H	0.428925	0.859916	0.281308
73	C	0.515832	0.030302	0.33187
74	C	0.567482	0.062963	0.014653
75	C	0.591443	0.117952	0.009039
76	C	0.564965	0.141371	0.321612
77	C	0.512665	0.108612	0.306033
78	C	0.489167	0.053631	0.311534
79	H	0.629216	0.141024	0.020027
80	H	0.451404	0.02992	0.300721
81	H	0.484275	0.979014	0.07406
82	N	0.594463	0.039939	0.03521
83	N	0.487693	0.956317	0.257211
84	H	0.477204	0.9316	0.232462
85	H	0.511365	0.992997	0.250156
86	N	0.483659	0.127633	0.286604
87	H	0.447825	0.104314	0.276651
88	H	0.496835	0.16498	0.283285
89	N	0.427182	0.879647	0.099083
90	O	0.606675	0.055415	0.074855
91	O	0.400698	0.897145	0.117543
92	O	0.635419	0.050214	0.014106
93	O	0.46649	0.890813	0.123041
94	C	0.591351	0.195414	0.3155
95	C	0.390186	0.811271	0.024059
96	H	0.360018	0.800709	0.04472
97	H	0.58995	0.209478	0.285561
98	C	0.139144	0.561557	0.018238
99	C	0.104108	0.543427	0.055076
100	C	0.049587	0.520425	0.047301
101	C	0.064006	0.534404	0.300032
102	C	0.118524	0.557136	0.308041
103	H	0.143677	0.56973	0.2813
104	C	0.973295	0.486252	0.331867
105	C	0.940631	0.505241	0.014649
106	C	0.885645	0.474212	0.009037
107	C	0.862227	0.424311	0.321615
108	C	0.894985	0.404768	0.306038
109	C	0.949964	0.436253	0.311536
110	H	0.86257	0.488909	0.020024
111	H	0.973681	0.422208	0.300725
112	N	0.963655	0.555245	0.035203
113	N	0.047276	0.532097	0.257207
114	H	0.07199	0.546323	0.232456
115	N	0.875966	0.356741	0.286615
116	H	0.899289	0.344225	0.276663
117	H	0.83862	0.332567	0.283299
118	N	0.123954	0.548261	0.099076
119	O	0.948179	0.551984	0.074848
120	O	0.106456	0.504276	0.117536
121	O	0.953376	0.585925	0.014097
122	O	0.11279	0.576403	0.123034
123	C	0.808182	0.396651	0.315506
124	C	0.192325	0.579636	0.024049
125	H	0.202886	0.560023	0.044704
126	H	0.794116	0.381165	0.285572
127	C	0.36084	0.637784	0.338796
128	C	0.305603	0.613067	0.338312
129	C	0.27982	0.642755	0.33884
130	C	0.310339	0.697992	0.338332
131	C	0.36581	0.723776	0.33885
132	C	0.390528	0.693256	0.338322
133	H	0.291954	0.719719	0.337389
134	H	0.43064	0.711641	0.337366
135	H	0.283875	0.572955	0.337359
136	N	0.382688	0.607637	0.337386
137	N	0.227825	0.620914	0.337412
138	N	0.395963	0.775772	0.337419
139	C	0.640584	0.362086	0.34588
140	C	0.696008	0.389989	0.346285
141	C	0.72438	0.363012	0.345887
142	C	0.696859	0.30759	0.346281
143	C	0.641512	0.279216	0.345877
144	C	0.61361	0.306737	0.346281
145	H	0.717276	0.287829	0.346977
146	H	0.573435	0.286323	0.346977
147	H	0.715769	0.430164	0.346983
148	N	0.61381	0.387298	0.347669
149	N	0.776364	0.389792	0.347665
150	N	0.616298	0.227232	0.347662
151	C	0.442038	0.57831	0.351563
152	C	0.460169	0.561408	0.388402
153	C	0.483173	0.529888	0.380633
154	C	0.488609	0.514673	0.337055
155	C	0.4692	0.530323	0.633362
156	C	0.446462	0.562107	0.641369
157	H	0.433871	0.574665	0.614625
158	C	0.51735	0.487767	0.665207
159	C	0.498359	0.436116	0.347989
160	C	0.529389	0.412156	0.34238
161	C	0.579285	0.438635	0.654951
162	C	0.598831	0.490937	0.639373
163	C	0.567347	0.514434	0.644872
164	H	0.514689	0.374386	0.353368
165	H	0.581395	0.552192	0.634058
166	H	0.497613	0.51933	0.40739
167	N	0.448356	0.409139	0.368549
168	N	0.471504	0.515893	0.590539
169	H	0.457278	0.52638	0.565788
170	H	0.484512	0.492224	0.583489
171	N	0.646853	0.519938	0.619944
172	H	0.659372	0.555774	0.609992
173	H	0.671025	0.506764	0.616628
174	N	0.455334	0.576423	0.432402
175	O	0.45162	0.396929	0.408192
176	O	0.499314	0.602909	0.450862
177	O	0.417674	0.36818	0.347445
178	O	0.427192	0.537119	0.456361
179	C	0.606941	0.412246	0.64884
180	C	0.423957	0.613408	0.357366
181	H	0.443563	0.643583	0.378026
182	H	0.62241	0.413651	0.618901
183	C	0.425288	0.864452	0.35158
184	C	0.442195	0.899491	0.388416
185	C	0.473711	0.95401	0.38064
186	C	0.488925	0.974655	0.337058
187	C	0.47327	0.939592	0.633372
188	C	0.441483	0.885069	0.641382
189	H	0.428925	0.859916	0.614642
190	C	0.515832	0.030302	0.665204
191	C	0.567482	0.062963	0.347986
192	C	0.591443	0.117952	0.342373
193	C	0.564965	0.141371	0.654944
194	C	0.512665	0.108612	0.639366
195	C	0.489167	0.053631	0.644869
196	H	0.629216	0.141024	0.353362
197	H	0.451404	0.02992	0.634054
198	H	0.484275	0.979014	0.407393
199	N	0.594463	0.039939	0.368545
200	N	0.487693	0.956317	0.590546
201	H	0.477204	0.9316	0.565795
202	H	0.511365	0.992997	0.583489
203	N	0.483659	0.127633	0.619937
204	H	0.447825	0.104314	0.609985
205	H	0.496835	0.16498	0.616618
206	N	0.427182	0.879647	0.432415
207	O	0.606675	0.055415	0.408189
208	O	0.400698	0.897145	0.450875
209	O	0.635419	0.050214	0.347441
210	O	0.46649	0.890813	0.456374
211	C	0.591351	0.195414	0.648834
212	C	0.390186	0.811271	0.357393
213	H	0.360018	0.800709	0.378052
214	H	0.58995	0.209478	0.618894
215	C	0.139144	0.561557	0.351573
216	C	0.104108	0.543427	0.388409
217	C	0.049587	0.520425	0.380633
218	C	0.064006	0.534404	0.633366
219	C	0.118524	0.557136	0.641375
220	H	0.143677	0.56973	0.614635
221	C	0.973295	0.486252	0.665201
222	C	0.940631	0.505241	0.347983
223	C	0.885645	0.474212	0.34237
224	C	0.862227	0.424311	0.654948
225	C	0.894985	0.404768	0.639373
226	C	0.949964	0.436253	0.644869
227	H	0.86257	0.488909	0.353358
228	H	0.973681	0.422208	0.634058
229	N	0.963655	0.555245	0.368535
230	N	0.047276	0.532097	0.590539
231	H	0.07199	0.546323	0.565792
232	N	0.875966	0.356741	0.619947
233	H	0.899289	0.344225	0.609995
234	H	0.83862	0.332567	0.616631
235	N	0.123954	0.548261	0.432409
236	O	0.948179	0.551984	0.408182
237	O	0.106456	0.504276	0.450868
238	O	0.953376	0.585925	0.347431
239	O	0.11279	0.576403	0.456367
240	C	0.808182	0.396651	0.64884
241	C	0.192325	0.579636	0.357383
242	H	0.202886	0.560023	0.378039
243	H	0.794116	0.381165	0.618904
244	C	0.36084	0.637784	0.67213
245	C	0.305603	0.613067	0.671646
246	C	0.27982	0.642755	0.672174
247	C	0.310339	0.697992	0.671666
248	C	0.36581	0.723776	0.672181
249	C	0.390528	0.693256	0.671656
250	H	0.291954	0.719719	0.670723
251	H	0.43064	0.711641	0.6707
252	H	0.283875	0.572955	0.670693
253	N	0.382688	0.607637	0.670716
254	N	0.227825	0.620914	0.670746
255	N	0.395963	0.775772	0.670753
256	C	0.640584	0.362086	0.679214
257	C	0.696008	0.389989	0.679619
258	C	0.72438	0.363012	0.679221
259	C	0.696859	0.30759	0.679615
260	C	0.641512	0.279216	0.679211
261	C	0.61361	0.306737	0.679615
262	H	0.717276	0.287829	0.680311
263	H	0.573435	0.286323	0.680311
264	H	0.715769	0.430164	0.680317
265	N	0.61381	0.387298	0.681003
266	N	0.776364	0.389792	0.680999
267	N	0.616298	0.227232	0.680996
268	C	0.442038	0.57831	0.684897
269	C	0.460169	0.561408	0.721736
270	C	0.483173	0.529888	0.713967
271	C	0.488609	0.514673	0.670389
272	C	0.4692	0.530323	0.966696
273	C	0.446462	0.562107	0.974703
274	H	0.433871	0.574665	0.947959
275	C	0.51735	0.487767	0.998538
276	C	0.498359	0.436116	0.681324
277	C	0.529389	0.412156	0.675711
278	C	0.579285	0.438635	0.988285
279	C	0.598831	0.490937	0.972707
280	C	0.567347	0.514434	0.978206
281	H	0.514689	0.374386	0.686702
282	H	0.581395	0.552192	0.967392
283	H	0.497613	0.51933	0.740724
284	N	0.448356	0.409139	0.701879
285	N	0.471504	0.515893	0.923873
286	H	0.457278	0.52638	0.899119
287	H	0.484512	0.492224	0.916823
288	N	0.646853	0.519938	0.953278
289	H	0.659372	0.555774	0.943323
290	H	0.671025	0.506764	0.949962
291	N	0.455334	0.576423	0.765736
292	O	0.45162	0.396929	0.741526
293	O	0.499314	0.602909	0.784196
294	O	0.417674	0.36818	0.680775
295	O	0.427192	0.537119	0.789695
296	C	0.606941	0.412246	0.982174
297	C	0.423957	0.613408	0.6907
298	H	0.443563	0.643583	0.71136
299	H	0.62241	0.413651	0.952235
300	C	0.425288	0.864452	0.684914
301	C	0.442195	0.899491	0.72175
302	C	0.473711	0.95401	0.713974
303	C	0.488925	0.974655	0.670392
304	C	0.47327	0.939592	0.966703
305	C	0.441483	0.885069	0.974716
306	H	0.428925	0.859916	0.947976
307	C	0.515832	0.030302	0.998538
308	C	0.567482	0.062963	0.68132
309	C	0.591443	0.117952	0.675707
310	C	0.564965	0.141371	0.988278
311	C	0.512665	0.108612	0.9727
312	C	0.489167	0.053631	0.978203
313	H	0.629216	0.141024	0.686696
314	H	0.451404	0.02992	0.967388
315	H	0.484275	0.979014	0.740727
316	N	0.594463	0.039939	0.701879
317	N	0.487693	0.956317	0.92388
318	H	0.477204	0.9316	0.899129
319	H	0.511365	0.992997	0.916823
320	N	0.483659	0.127633	0.953271
321	H	0.447825	0.104314	0.943319
322	H	0.496835	0.16498	0.949952
323	N	0.427182	0.879647	0.765749
324	O	0.606675	0.055415	0.741523
325	O	0.400698	0.897145	0.784209
326	O	0.635419	0.050214	0.680772
327	O	0.46649	0.890813	0.789708
328	C	0.591351	0.195414	0.982168
329	C	0.390186	0.811271	0.690727
330	H	0.360018	0.800709	0.711387
331	H	0.58995	0.209478	0.952228
332	C	0.139144	0.561557	0.684907
333	C	0.104108	0.543427	0.721743
334	C	0.049587	0.520425	0.713967
335	C	0.064006	0.534404	0.9667
336	C	0.118524	0.557136	0.974709
337	H	0.143677	0.56973	0.947969
338	C	0.973295	0.486252	0.998535
339	C	0.940631	0.505241	0.681317
340	C	0.885645	0.474212	0.675704
341	C	0.862227	0.424311	0.988282
342	C	0.894985	0.404768	0.972704
343	C	0.949964	0.436253	0.978203
344	H	0.86257	0.488909	0.686692
345	H	0.973681	0.422208	0.967392
346	N	0.963655	0.555245	0.701869
347	N	0.047276	0.532097	0.923873
348	H	0.07199	0.546323	0.899122
349	N	0.875966	0.356741	0.953281
350	H	0.899289	0.344225	0.943329
351	H	0.83862	0.332567	0.949965
352	N	0.123954	0.548261	0.765743
353	O	0.948179	0.551984	0.741516
354	O	0.106456	0.504276	0.784202
355	O	0.953376	0.585925	0.680765
356	O	0.11279	0.576403	0.789701
357	C	0.808182	0.396651	0.982174
358	C	0.192325	0.579636	0.690717
359	H	0.202886	0.560023	0.711373
360	H	0.794116	0.381165	0.952238
