data_C174H114N36O6_2018-02-15_10:47:46
#******************************************
#
# CIF file created by Zeo++
# Zeo++ is an open source package to
# analyze microporous materials
#
#*******************************************

_cell_length_a		25.5796   
_cell_length_b		25.5794   
_cell_length_c		29.182   
_cell_angle_alpha		90   
_cell_angle_beta		90   
_cell_angle_gamma		90.0372   

_symmetry_space_group_name_H-M		'P1'
_symmetry_Int_Tables_number		1
_symmetry_cell_setting		Monoclinic

loop_
_symmetry_equiv_pos_as_xyz
'+x,+y,+z'

loop_
_atom_site_label
_atom_site_type_symbol
_atom_site_fract_x
_atom_site_fract_y
_atom_site_fract_z
1	C	0.91492	0.878402	0.338239
2	C	0.876434	0.916222	0.337195
3	C	0.900469	0.965304	0.336126
4	N	0.952598	0.955241	0.336669
5	C	0.963557	0.903305	0.337937
6	C	0.012712	0.877077	0.338763
7	C	0.062032	0.902816	0.338315
8	N	0.071801	0.954819	0.337162
9	C	0.12361	0.965531	0.338477
10	C	0.148753	0.917101	0.340003
11	C	0.110911	0.87857	0.340066
12	C	0.14852	0.015272	0.338716
13	C	0.121535	0.064023	0.337595
14	N	0.069406	0.074123	0.336968
15	C	0.058436	0.126072	0.335952
16	C	0.107099	0.150938	0.33575
17	C	0.145579	0.113105	0.337201
18	C	0.009231	0.152207	0.334813
19	C	0.959921	0.126391	0.33521
20	N	0.950075	0.074407	0.33655
21	C	0.898242	0.063738	0.335271
22	C	0.873159	0.112165	0.333357
23	C	0.911031	0.150659	0.33364
24	C	0.873358	0.013988	0.33489
25	C	0.817629	0.012776	0.329898
26	C	0.783702	0.022083	0.03393
27	C	0.72893	0.01986	0.028243
28	C	0.706276	0.008054	0.318428
29	C	0.740735	0.998984	0.281218
30	C	0.795335	0.001447	0.286749
31	C	0.009096	0.207928	0.329714
32	C	0.016574	0.241788	0.034112
33	C	0.014868	0.296575	0.028387
34	C	0.005372	0.319297	0.318169
35	C	0.998168	0.284898	0.280596
36	C	0.000173	0.230285	0.286164
37	C	0.204239	0.016254	0.343564
38	C	0.237684	0.023438	0.305503
39	C	0.292431	0.025673	0.311309
40	C	0.315394	0.020738	0.355311
41	C	0.281537	0.013175	0.059829
42	C	0.226938	0.010911	0.054103
43	C	0.012696	0.821349	0.343592
44	C	0.021102	0.787868	0.305753
45	C	0.005711	0.798682	0.053969
46	C	0.007579	0.744079	0.059765
47	C	0.01634	0.710189	0.355476
48	C	0.022862	0.733117	0.311617
49	H	0.030118	0.710177	0.283595
50	H	0.026747	0.803232	0.273748
51	H	0.002913	0.729302	0.092132
52	H	0.999924	0.821892	0.082099
53	H	0.907807	0.839085	0.338976
54	H	0.837245	0.908407	0.337475
55	H	0.978894	0.981982	0.335918
56	H	0.043101	0.047374	0.337279
57	H	0.11848	0.839387	0.341636
58	H	0.188086	0.910276	0.341338
59	H	0.222296	0.027789	0.273354
60	H	0.315348	0.031951	0.283088
61	H	0.20376	0.005853	0.082366
62	H	0.296339	0.009582	0.09229
63	H	0.184762	0.12092	0.337474
64	H	0.114248	0.190239	0.33504
65	H	0.833859	0.119056	0.33166
66	H	0.903476	0.189853	0.332222
67	H	0.022878	0.226704	0.066123
68	H	0.019959	0.319742	0.056623
69	H	0.994423	0.20685	0.258165
70	H	0.991101	0.299307	0.248441
71	H	0.81881	0.994476	0.258993
72	H	0.726378	0.990277	0.249352
73	H	0.705724	0.026394	0.05622
74	H	0.798731	0.030224	0.065644
75	C	0.001791	0.373277	0.311051
76	C	0.369109	0.0252	0.362799
77	C	0.020555	0.656485	0.363107
78	C	0.652296	0.004191	0.31137
79	H	0.988327	0.385694	0.28093
80	H	0.639883	0.989597	0.28165
81	C	0.011848	0.569697	0.334707
82	N	0.029592	0.543512	0.03899
83	C	0.031449	0.490512	0.042071
84	N	0.996278	0.486262	0.300598
85	C	0.995081	0.539321	0.29704
86	H	0.045163	0.473467	0.071373
87	O	0.974825	0.561729	0.25839
88	C	0.012092	0.565506	0.221672
89	H	0.992807	0.583829	0.192495
90	H	0.02583	0.526936	0.210967
91	H	0.045515	0.589787	0.231326
92	N	0.010162	0.621793	0.332428
93	C	0.455873	0.015427	0.334636
94	N	0.482106	0.034129	0.038549
95	C	0.535106	0.035993	0.041599
96	N	0.539273	0.998839	0.300861
97	C	0.486211	0.997623	0.297326
98	H	0.552184	0.050476	0.070608
99	O	0.463757	0.976411	0.25908
100	C	0.459977	0.01278	0.221679
101	H	0.441625	0.992776	0.192876
102	H	0.498543	0.026291	0.210703
103	H	0.435713	0.046407	0.23072
104	N	0.403773	0.013718	0.332404
105	C	0.783702	0.022083	0.367264
106	C	0.72893	0.01986	0.361576
107	C	0.016574	0.241788	0.367446
108	C	0.014868	0.296575	0.36172
109	C	0.014009	0.460058	0.338181
110	N	0.015245	0.407961	0.340853
111	C	0.565517	0.017518	0.338081
112	N	0.61761	0.018793	0.340734
113	C	0.315394	0.020738	0.021978
114	C	0.01634	0.710189	0.022142
115	C	0.369109	0.0252	0.029466
116	C	0.020555	0.656485	0.029775
117	H	0.38114	0.036965	0.060245
118	H	0.031245	0.644487	0.060859
119	N	0.029592	0.543512	0.372322
120	C	0.031449	0.490512	0.375406
121	N	0.482106	0.034129	0.371883
122	C	0.535106	0.035993	0.374933
123	H	0.38114	0.036965	0.393578
124	H	0.031245	0.644487	0.394192
125	C	0.014009	0.460058	0.004849
126	N	0.015245	0.407961	0.007518
127	C	0.565517	0.017518	0.004749
128	N	0.61761	0.018793	0.007402
129	C	0.91492	0.878402	0.671571
130	C	0.876434	0.916222	0.67053
131	C	0.900469	0.965304	0.669461
132	N	0.952598	0.955241	0.670002
133	C	0.963557	0.903305	0.67127
134	C	0.012712	0.877077	0.672096
135	C	0.062032	0.902816	0.671647
136	N	0.071801	0.954819	0.670495
137	C	0.12361	0.965531	0.671811
138	C	0.148753	0.917101	0.673336
139	C	0.110911	0.87857	0.673398
140	C	0.14852	0.015272	0.672051
141	C	0.121535	0.064023	0.670927
142	N	0.069406	0.074123	0.6703
143	C	0.058436	0.126072	0.669286
144	C	0.107099	0.150938	0.669084
145	C	0.145579	0.113105	0.670533
146	C	0.009231	0.152207	0.668148
147	C	0.959921	0.126391	0.668542
148	N	0.950075	0.074407	0.669882
149	C	0.898242	0.063738	0.668604
150	C	0.873159	0.112165	0.666692
151	C	0.911031	0.150659	0.666973
152	C	0.873358	0.013988	0.668223
153	C	0.817629	0.012776	0.663231
154	C	0.706276	0.008054	0.651761
155	C	0.740735	0.998984	0.61455
156	C	0.795335	0.001447	0.620081
157	C	0.009096	0.207928	0.663049
158	C	0.005372	0.319297	0.651501
159	C	0.998168	0.284898	0.61393
160	C	0.000173	0.230285	0.619498
161	C	0.204239	0.016254	0.676897
162	C	0.237684	0.023438	0.638836
163	C	0.292431	0.025673	0.644644
164	C	0.315394	0.020738	0.688644
165	C	0.281537	0.013175	0.393164
166	C	0.226938	0.010911	0.387437
167	C	0.012696	0.821349	0.676924
168	C	0.021102	0.787868	0.639086
169	C	0.005711	0.798682	0.387304
170	C	0.007579	0.744079	0.393098
171	C	0.01634	0.710189	0.688808
172	C	0.022862	0.733117	0.644949
173	H	0.030118	0.710177	0.616928
174	H	0.026747	0.803232	0.60708
175	H	0.002913	0.729302	0.425464
176	H	0.999924	0.821892	0.415434
177	H	0.907807	0.839085	0.672308
178	H	0.837245	0.908407	0.670807
179	H	0.978894	0.981982	0.669252
180	H	0.043101	0.047374	0.670612
181	H	0.11848	0.839387	0.674971
182	H	0.188086	0.910276	0.674673
183	H	0.222296	0.027789	0.606689
184	H	0.315348	0.031951	0.616421
185	H	0.20376	0.005853	0.415698
186	H	0.296339	0.009582	0.425622
187	H	0.184762	0.12092	0.670807
188	H	0.114248	0.190239	0.668374
189	H	0.833859	0.119056	0.664992
190	H	0.903476	0.189853	0.665554
191	H	0.022878	0.226704	0.399455
192	H	0.019959	0.319742	0.389956
193	H	0.994423	0.20685	0.591498
194	H	0.991101	0.299307	0.581773
195	H	0.81881	0.994476	0.592327
196	H	0.726378	0.990277	0.582684
197	H	0.705724	0.026394	0.389555
198	H	0.798731	0.030224	0.398979
199	C	0.001791	0.373277	0.644383
200	C	0.369109	0.0252	0.696131
201	C	0.020555	0.656485	0.696443
202	C	0.652296	0.004191	0.644702
203	H	0.988327	0.385694	0.614262
204	H	0.38114	0.036965	0.72691
205	H	0.031245	0.644487	0.727527
206	H	0.639883	0.989597	0.614982
207	C	0.011848	0.569697	0.668038
208	N	0.996278	0.486262	0.633932
209	C	0.995081	0.539321	0.630375
210	H	0.045163	0.473467	0.404705
211	O	0.974825	0.561729	0.591724
212	C	0.012092	0.565506	0.555006
213	H	0.992807	0.583829	0.525828
214	H	0.02583	0.526936	0.544301
215	H	0.045515	0.589787	0.56466
216	N	0.010162	0.621793	0.66576
217	C	0.455873	0.015427	0.66797
218	N	0.539273	0.998839	0.634196
219	C	0.486211	0.997623	0.630659
220	H	0.552184	0.050476	0.403941
221	O	0.463757	0.976411	0.592413
222	C	0.459977	0.01278	0.555013
223	H	0.441625	0.992776	0.526208
224	H	0.498543	0.026291	0.544037
225	H	0.435713	0.046407	0.564053
226	N	0.403773	0.013718	0.665736
227	C	0.91492	0.878402	0.004904
228	C	0.876434	0.916222	0.003862
229	C	0.900469	0.965304	0.002793
230	N	0.952598	0.955241	0.003334
231	C	0.963557	0.903305	0.004602
232	C	0.012712	0.877077	0.005428
233	C	0.062032	0.902816	0.004982
234	N	0.071801	0.954819	0.003828
235	C	0.12361	0.965531	0.005143
236	C	0.148753	0.917101	0.006668
237	C	0.110911	0.87857	0.006733
238	C	0.14852	0.015272	0.005383
239	C	0.121535	0.064023	0.004263
240	N	0.069406	0.074123	0.003636
241	C	0.058436	0.126072	0.002618
242	C	0.107099	0.150938	0.002416
243	C	0.145579	0.113105	0.003869
244	C	0.009231	0.152207	0.00148
245	C	0.959921	0.126391	0.001878
246	N	0.950075	0.074407	0.003218
247	C	0.898242	0.063738	0.001939
248	C	0.873159	0.112165	2.4e-05
249	C	0.911031	0.150659	0.000308
250	C	0.873358	0.013988	0.001556
251	C	0.817629	0.012776	0.996566
252	C	0.783702	0.022083	0.700596
253	C	0.72893	0.01986	0.694911
254	C	0.706276	0.008054	0.985097
255	C	0.740735	0.998984	0.947886
256	C	0.795335	0.001447	0.953416
257	C	0.009096	0.207928	0.996381
258	C	0.016574	0.241788	0.700778
259	C	0.014868	0.296575	0.695055
260	C	0.005372	0.319297	0.984836
261	C	0.998168	0.284898	0.947262
262	C	0.000173	0.230285	0.95283
263	C	0.204239	0.016254	0.010232
264	C	0.237684	0.023438	0.972171
265	C	0.292431	0.025673	0.977976
266	C	0.281537	0.013175	0.726496
267	C	0.226938	0.010911	0.72077
268	C	0.012696	0.821349	0.01026
269	C	0.021102	0.787868	0.972421
270	C	0.005711	0.798682	0.720636
271	C	0.007579	0.744079	0.726431
272	C	0.022862	0.733117	0.978284
273	H	0.030118	0.710177	0.95026
274	H	0.026747	0.803232	0.940415
275	H	0.002913	0.729302	0.7588
276	H	0.999924	0.821892	0.748766
277	H	0.907807	0.839085	0.005644
278	H	0.837245	0.908407	0.004143
279	H	0.978894	0.981982	0.002584
280	H	0.043101	0.047374	0.003944
281	H	0.11848	0.839387	0.008303
282	H	0.188086	0.910276	0.008005
283	H	0.222296	0.027789	0.940021
284	H	0.315348	0.031951	0.949757
285	H	0.20376	0.005853	0.749034
286	H	0.296339	0.009582	0.758957
287	H	0.184762	0.12092	0.004139
288	H	0.114248	0.190239	0.001706
289	H	0.833859	0.119056	0.998328
290	H	0.903476	0.189853	0.99889
291	H	0.022878	0.226704	0.732791
292	H	0.019959	0.319742	0.723288
293	H	0.994423	0.20685	0.92483
294	H	0.991101	0.299307	0.915109
295	H	0.81881	0.994476	0.92566
296	H	0.726378	0.990277	0.91602
297	H	0.705724	0.026394	0.722887
298	H	0.798731	0.030224	0.732311
299	C	0.001791	0.373277	0.977716
300	C	0.652296	0.004191	0.978038
301	H	0.988327	0.385694	0.947598
302	H	0.639883	0.989597	0.948317
303	C	0.011848	0.569697	0.001374
304	N	0.029592	0.543512	0.705658
305	C	0.031449	0.490512	0.708738
306	C	0.014009	0.460058	0.671513
307	N	0.996278	0.486262	0.967264
308	C	0.995081	0.539321	0.963707
309	H	0.045163	0.473467	0.73804
310	O	0.974825	0.561729	0.925056
311	C	0.012092	0.565506	0.888339
312	H	0.992807	0.583829	0.859163
313	H	0.02583	0.526936	0.877633
314	H	0.045515	0.589787	0.897992
315	N	0.010162	0.621793	0.999095
316	N	0.015245	0.407961	0.674186
317	C	0.455873	0.015427	0.001302
318	N	0.482106	0.034129	0.705215
319	C	0.535106	0.035993	0.708265
320	C	0.565517	0.017518	0.671414
321	N	0.539273	0.998839	0.967528
322	C	0.486211	0.997623	0.963995
323	H	0.552184	0.050476	0.737276
324	O	0.463757	0.976411	0.925745
325	C	0.459977	0.01278	0.888345
326	H	0.441625	0.992776	0.859543
327	H	0.498543	0.026291	0.87737
328	H	0.435713	0.046407	0.897385
329	N	0.403773	0.013718	0.999071
330	N	0.61761	0.018793	0.674066
