data_C252H144N144_2018-02-15_10:38:26
#******************************************
#
# CIF file created by Zeo++
# Zeo++ is an open source package to
# analyze microporous materials
#
#*******************************************

_cell_length_a		28.8156   
_cell_length_b		28.8156   
_cell_length_c		29.4698   
_cell_angle_alpha		90   
_cell_angle_beta		90   
_cell_angle_gamma		120   

_symmetry_space_group_name_H-M		'P1'
_symmetry_Int_Tables_number		1
_symmetry_cell_setting		Monoclinic

loop_
_symmetry_equiv_pos_as_xyz
'+x,+y,+z'

loop_
_atom_site_label
_atom_site_type_symbol
_atom_site_fract_x
_atom_site_fract_y
_atom_site_fract_z
1	C	0.125405	0.314953	0.007492
2	C	0.041582	0.273044	0.05346
3	C	0.069368	0.286925	0.011372
4	N	0.040039	0.272254	0.305826
5	C	0.070504	0.287506	0.097531
6	H	0.043236	0.273876	0.1265
7	H	0.095743	0.330943	0.099961
8	H	0.095739	0.269303	0.099964
9	C	0.125405	0.314953	0.340823
10	C	0.041582	0.273044	0.386793
11	C	0.069368	0.286925	0.344705
12	N	0.040039	0.272254	0.639159
13	C	0.070504	0.287506	0.430865
14	H	0.043236	0.273876	0.459833
15	H	0.095743	0.330943	0.433294
16	H	0.095739	0.269303	0.433298
17	C	0.125405	0.314953	0.674158
18	C	0.041582	0.273044	0.720127
19	C	0.069368	0.286925	0.67804
20	N	0.040039	0.272254	0.972494
21	C	0.070504	0.287506	0.764199
22	H	0.043236	0.273876	0.793168
23	H	0.095743	0.330943	0.766629
24	H	0.095739	0.269303	0.766632
25	C	0.125406	0.814954	0.007492
26	C	0.041582	0.773043	0.05346
27	C	0.069368	0.786924	0.011372
28	N	0.040039	0.772254	0.305826
29	C	0.070503	0.787505	0.097531
30	H	0.043237	0.773876	0.1265
31	H	0.095744	0.830943	0.099961
32	H	0.095739	0.769304	0.099964
33	C	0.125406	0.814954	0.340823
34	C	0.041582	0.773043	0.386793
35	C	0.069368	0.786924	0.344705
36	N	0.040039	0.772254	0.639159
37	C	0.070503	0.787505	0.430865
38	H	0.043237	0.773876	0.459833
39	H	0.095744	0.830943	0.433294
40	H	0.095739	0.769304	0.433298
41	C	0.125406	0.814954	0.674158
42	C	0.041582	0.773043	0.720127
43	C	0.069368	0.786924	0.67804
44	N	0.040039	0.772254	0.972494
45	C	0.070503	0.787505	0.764199
46	H	0.043237	0.773876	0.793168
47	H	0.095744	0.830943	0.766629
48	H	0.095739	0.769304	0.766632
49	C	0.207532	0.397083	0.007479
50	N	0.153038	0.369446	0.008222
51	N	0.15304	0.288092	0.008205
52	C	0.207535	0.314944	0.007465
53	N	0.234388	0.369442	0.008198
54	C	0.31946	0.120922	0.007638
55	N	0.37396	0.148531	0.008191
56	C	0.401566	0.20303	0.007652
57	N	0.373961	0.229924	0.008208
58	C	0.319462	0.203031	0.007659
59	N	0.292569	0.148531	0.008198
60	C	0.291435	0.231049	0.010411
61	C	0.277827	0.244666	0.052335
62	C	0.249448	0.273045	0.053444
63	C	0.235563	0.286936	0.011351
64	N	0.250228	0.272262	0.30581
65	H	0.288601	0.233893	0.081922
66	N	0.276476	0.246009	0.30528
67	C	0.234982	0.28751	0.097511
68	H	0.248611	0.273879	0.126484
69	H	0.191544	0.269309	0.099938
70	H	0.253181	0.330947	0.099939
71	C	0.291431	0.064878	0.010402
72	C	0.277821	0.037663	0.05233
73	C	0.249446	0.480905	0.053448
74	C	0.23557	0.453119	0.011361
75	N	0.250239	0.482452	0.305814
76	H	0.288592	0.059217	0.081914
77	N	0.276482	0.034951	0.305276
78	C	0.234984	0.451985	0.09752
79	H	0.248611	0.47925	0.126489
80	H	0.253187	0.426752	0.099954
81	H	0.191546	0.426744	0.099948
82	C	0.457611	0.231055	0.010413
83	C	0.484825	0.244669	0.052341
84	H	0.46327	0.233896	0.081925
85	N	0.487538	0.246006	0.305286
86	C	0.207532	0.397083	0.340813
87	N	0.153038	0.369446	0.341556
88	N	0.15304	0.288092	0.341539
89	C	0.207535	0.314944	0.340796
90	N	0.234388	0.369442	0.341529
91	C	0.31946	0.120922	0.340973
92	N	0.37396	0.148531	0.341526
93	C	0.401566	0.20303	0.340983
94	N	0.373961	0.229924	0.341543
95	C	0.319462	0.203031	0.34099
96	N	0.292569	0.148531	0.341533
97	C	0.291435	0.231049	0.343745
98	C	0.277827	0.244666	0.385669
99	C	0.249448	0.273045	0.386776
100	C	0.235563	0.286936	0.344685
101	N	0.250228	0.272262	0.639142
102	H	0.288601	0.233893	0.415256
103	N	0.276476	0.246009	0.638613
104	C	0.234982	0.28751	0.430844
105	H	0.248611	0.273879	0.459816
106	H	0.191544	0.269309	0.433271
107	H	0.253181	0.330947	0.433271
108	C	0.291431	0.064878	0.343735
109	C	0.277821	0.037663	0.385663
110	C	0.249446	0.480905	0.386782
111	C	0.23557	0.453119	0.344695
112	N	0.250239	0.482452	0.639149
113	H	0.288592	0.059217	0.415245
114	N	0.276482	0.034951	0.63861
115	C	0.234984	0.451985	0.430855
116	H	0.248611	0.47925	0.459823
117	H	0.253187	0.426752	0.433288
118	H	0.191546	0.426744	0.433281
119	C	0.457611	0.231055	0.343745
120	C	0.484825	0.244669	0.385676
121	H	0.46327	0.233896	0.415259
122	N	0.487538	0.246006	0.63862
123	C	0.207532	0.397083	0.674148
124	N	0.153038	0.369446	0.674887
125	N	0.15304	0.288092	0.674874
126	C	0.207535	0.314944	0.674131
127	N	0.234388	0.369442	0.674864
128	C	0.31946	0.120922	0.674307
129	N	0.37396	0.148531	0.674857
130	C	0.401566	0.20303	0.674317
131	N	0.373961	0.229924	0.674874
132	C	0.319462	0.203031	0.674324
133	N	0.292569	0.148531	0.674867
134	C	0.291435	0.231049	0.677079
135	C	0.277827	0.244666	0.719
136	C	0.249448	0.273045	0.72011
137	C	0.235563	0.286936	0.678019
138	N	0.250228	0.272262	0.972477
139	H	0.288601	0.233893	0.74859
140	N	0.276476	0.246009	0.971947
141	C	0.234982	0.28751	0.764179
142	H	0.248611	0.273879	0.793151
143	H	0.191544	0.269309	0.766605
144	H	0.253181	0.330947	0.766605
145	C	0.291431	0.064878	0.677069
146	C	0.277821	0.037663	0.718997
147	C	0.249446	0.480905	0.720113
148	C	0.23557	0.453119	0.678026
149	N	0.250239	0.482452	0.97248
150	H	0.288592	0.059217	0.74858
151	N	0.276482	0.034951	0.971941
152	C	0.234984	0.451985	0.764186
153	H	0.248611	0.47925	0.793154
154	H	0.253187	0.426752	0.766622
155	H	0.191546	0.426744	0.766615
156	C	0.457611	0.231055	0.677079
157	C	0.484825	0.244669	0.719007
158	H	0.46327	0.233896	0.74859
159	N	0.487538	0.246006	0.971954
160	C	0.207531	0.897082	0.007479
161	N	0.153039	0.869448	0.008222
162	N	0.153041	0.788094	0.008205
163	C	0.207537	0.814946	0.007465
164	N	0.234387	0.86944	0.008198
165	C	0.31946	0.620921	0.007638
166	N	0.37396	0.648531	0.008191
167	C	0.401565	0.703029	0.007652
168	N	0.373962	0.729925	0.008208
169	C	0.319463	0.703033	0.007659
170	N	0.292569	0.648531	0.008198
171	C	0.291436	0.731051	0.010411
172	C	0.277828	0.744668	0.052335
173	C	0.249449	0.773047	0.053444
174	C	0.235563	0.786936	0.011351
175	N	0.250228	0.772262	0.30581
176	H	0.288601	0.733892	0.081922
177	N	0.276477	0.74601	0.30528
178	C	0.234981	0.787509	0.097511
179	H	0.248612	0.77388	0.126484
180	H	0.191543	0.769308	0.099938
181	H	0.253181	0.830947	0.099939
182	C	0.29143	0.564876	0.010402
183	C	0.277821	0.537663	0.05233
184	C	0.249446	0.980905	0.053448
185	C	0.23557	0.953119	0.011361
186	N	0.250238	0.982452	0.305814
187	H	0.288593	0.559218	0.081914
188	N	0.276482	0.534951	0.305276
189	C	0.234984	0.951985	0.09752
190	H	0.248611	0.97925	0.126489
191	H	0.253188	0.926751	0.099954
192	H	0.191546	0.926743	0.099948
193	C	0.457611	0.731055	0.010413
194	C	0.484824	0.744668	0.052341
195	H	0.46327	0.733896	0.081925
196	N	0.487538	0.746006	0.305286
197	C	0.207531	0.897082	0.340813
198	N	0.153039	0.869448	0.341556
199	N	0.153041	0.788094	0.341539
200	C	0.207537	0.814946	0.340796
201	N	0.234387	0.86944	0.341529
202	C	0.31946	0.620921	0.340973
203	N	0.37396	0.648531	0.341526
204	C	0.401565	0.703029	0.340983
205	N	0.373962	0.729925	0.341543
206	C	0.319463	0.703033	0.34099
207	N	0.292569	0.648531	0.341533
208	C	0.291436	0.731051	0.343745
209	C	0.277828	0.744668	0.385669
210	C	0.249449	0.773047	0.386776
211	C	0.235563	0.786936	0.344685
212	N	0.250228	0.772262	0.639142
213	H	0.288601	0.733892	0.415256
214	N	0.276477	0.74601	0.638613
215	C	0.234981	0.787509	0.430844
216	H	0.248612	0.77388	0.459816
217	H	0.191543	0.769308	0.433271
218	H	0.253181	0.830947	0.433271
219	C	0.29143	0.564876	0.343735
220	C	0.277821	0.537663	0.385663
221	C	0.249446	0.980905	0.386782
222	C	0.23557	0.953119	0.344695
223	N	0.250238	0.982452	0.639149
224	H	0.288593	0.559218	0.415245
225	N	0.276482	0.534951	0.63861
226	C	0.234984	0.951985	0.430855
227	H	0.248611	0.97925	0.459823
228	H	0.253188	0.926751	0.433288
229	H	0.191546	0.926743	0.433281
230	C	0.457611	0.731055	0.343745
231	C	0.484824	0.744668	0.385676
232	H	0.46327	0.733896	0.415259
233	N	0.487538	0.746006	0.63862
234	C	0.207531	0.897082	0.674148
235	N	0.153039	0.869448	0.674887
236	N	0.153041	0.788094	0.674874
237	C	0.207537	0.814946	0.674131
238	N	0.234387	0.86944	0.674864
239	C	0.31946	0.620921	0.674307
240	N	0.37396	0.648531	0.674857
241	C	0.401565	0.703029	0.674317
242	N	0.373962	0.729925	0.674874
243	C	0.319463	0.703033	0.674324
244	N	0.292569	0.648531	0.674867
245	C	0.291436	0.731051	0.677079
246	C	0.277828	0.744668	0.719
247	C	0.249449	0.773047	0.72011
248	C	0.235563	0.786936	0.678019
249	N	0.250228	0.772262	0.972477
250	H	0.288601	0.733892	0.74859
251	N	0.276477	0.74601	0.971947
252	C	0.234981	0.787509	0.764179
253	H	0.248612	0.77388	0.793151
254	H	0.191543	0.769308	0.766605
255	H	0.253181	0.830947	0.766605
256	C	0.29143	0.564876	0.677069
257	C	0.277821	0.537663	0.718997
258	C	0.249446	0.980905	0.720113
259	C	0.23557	0.953119	0.678026
260	N	0.250238	0.982452	0.97248
261	H	0.288593	0.559218	0.74858
262	N	0.276482	0.534951	0.971941
263	C	0.234984	0.951985	0.764186
264	H	0.248611	0.97925	0.793154
265	H	0.253188	0.926751	0.766622
266	H	0.191546	0.926743	0.766615
267	C	0.457611	0.731055	0.677079
268	C	0.484824	0.744668	0.719007
269	H	0.46327	0.733896	0.74859
270	N	0.487538	0.746006	0.971954
271	C	0.70753	0.397083	0.007479
272	N	0.653039	0.369446	0.008222
273	C	0.625404	0.314953	0.007492
274	N	0.653038	0.288092	0.008205
275	C	0.707535	0.314944	0.007465
276	N	0.734389	0.369442	0.008198
277	C	0.81946	0.120922	0.007638
278	N	0.873961	0.148531	0.008191
279	C	0.901564	0.20303	0.007652
280	N	0.873961	0.229924	0.008208
281	C	0.819463	0.203031	0.007659
282	N	0.792568	0.148531	0.008198
283	C	0.791433	0.231049	0.010411
284	C	0.777825	0.244666	0.052335
285	C	0.749448	0.273045	0.053444
286	C	0.735561	0.286936	0.011351
287	N	0.750229	0.272262	0.30581
288	H	0.7886	0.233893	0.081922
289	N	0.776477	0.246009	0.30528
290	C	0.73498	0.28751	0.097511
291	H	0.748612	0.273879	0.126484
292	H	0.691544	0.269309	0.099938
293	H	0.75318	0.330947	0.099939
294	C	0.791431	0.064878	0.010402
295	C	0.77782	0.037663	0.05233
296	C	0.749444	0.480905	0.053448
297	C	0.735569	0.453119	0.011361
298	N	0.750239	0.482452	0.305814
299	H	0.78859	0.059217	0.081914
300	N	0.776481	0.034951	0.305276
301	C	0.734984	0.451985	0.09752
302	H	0.74861	0.47925	0.126489
303	H	0.753188	0.426752	0.099954
304	H	0.691547	0.426744	0.099948
305	C	0.95761	0.231055	0.010413
306	C	0.984825	0.244669	0.052341
307	C	0.541584	0.273044	0.05346
308	C	0.569367	0.286925	0.011372
309	N	0.540037	0.272254	0.305826
310	H	0.963271	0.233896	0.081925
311	N	0.987538	0.246006	0.305286
312	C	0.570504	0.287506	0.097531
313	H	0.543235	0.273876	0.1265
314	H	0.595742	0.330943	0.099961
315	H	0.595739	0.269303	0.099964
316	C	0.70753	0.397083	0.340813
317	N	0.653039	0.369446	0.341556
318	C	0.625404	0.314953	0.340823
319	N	0.653038	0.288092	0.341539
320	C	0.707535	0.314944	0.340796
321	N	0.734389	0.369442	0.341529
322	C	0.81946	0.120922	0.340973
323	N	0.873961	0.148531	0.341526
324	C	0.901564	0.20303	0.340983
325	N	0.873961	0.229924	0.341543
326	C	0.819463	0.203031	0.34099
327	N	0.792568	0.148531	0.341533
328	C	0.791433	0.231049	0.343745
329	C	0.777825	0.244666	0.385669
330	C	0.749448	0.273045	0.386776
331	C	0.735561	0.286936	0.344685
332	N	0.750229	0.272262	0.639142
333	H	0.7886	0.233893	0.415256
334	N	0.776477	0.246009	0.638613
335	C	0.73498	0.28751	0.430844
336	H	0.748612	0.273879	0.459816
337	H	0.691544	0.269309	0.433271
338	H	0.75318	0.330947	0.433271
339	C	0.791431	0.064878	0.343735
340	C	0.77782	0.037663	0.385663
341	C	0.749444	0.480905	0.386782
342	C	0.735569	0.453119	0.344695
343	N	0.750239	0.482452	0.639149
344	H	0.78859	0.059217	0.415245
345	N	0.776481	0.034951	0.63861
346	C	0.734984	0.451985	0.430855
347	H	0.74861	0.47925	0.459823
348	H	0.753188	0.426752	0.433288
349	H	0.691547	0.426744	0.433281
350	C	0.95761	0.231055	0.343745
351	C	0.984825	0.244669	0.385676
352	C	0.541584	0.273044	0.386793
353	C	0.569367	0.286925	0.344705
354	N	0.540037	0.272254	0.639159
355	H	0.963271	0.233896	0.415259
356	N	0.987538	0.246006	0.63862
357	C	0.570504	0.287506	0.430865
358	H	0.543235	0.273876	0.459833
359	H	0.595742	0.330943	0.433294
360	H	0.595739	0.269303	0.433298
361	C	0.70753	0.397083	0.674148
362	N	0.653039	0.369446	0.674887
363	C	0.625404	0.314953	0.674158
364	N	0.653038	0.288092	0.674874
365	C	0.707535	0.314944	0.674131
366	N	0.734389	0.369442	0.674864
367	C	0.81946	0.120922	0.674307
368	N	0.873961	0.148531	0.674857
369	C	0.901564	0.20303	0.674317
370	N	0.873961	0.229924	0.674874
371	C	0.819463	0.203031	0.674324
372	N	0.792568	0.148531	0.674867
373	C	0.791433	0.231049	0.677079
374	C	0.777825	0.244666	0.719
375	C	0.749448	0.273045	0.72011
376	C	0.735561	0.286936	0.678019
377	N	0.750229	0.272262	0.972477
378	H	0.7886	0.233893	0.74859
379	N	0.776477	0.246009	0.971947
380	C	0.73498	0.28751	0.764179
381	H	0.748612	0.273879	0.793151
382	H	0.691544	0.269309	0.766605
383	H	0.75318	0.330947	0.766605
384	C	0.791431	0.064878	0.677069
385	C	0.77782	0.037663	0.718997
386	C	0.749444	0.480905	0.720113
387	C	0.735569	0.453119	0.678026
388	N	0.750239	0.482452	0.97248
389	H	0.78859	0.059217	0.74858
390	N	0.776481	0.034951	0.971941
391	C	0.734984	0.451985	0.764186
392	H	0.74861	0.47925	0.793154
393	H	0.753188	0.426752	0.766622
394	H	0.691547	0.426744	0.766615
395	C	0.95761	0.231055	0.677079
396	C	0.984825	0.244669	0.719007
397	C	0.541584	0.273044	0.720127
398	C	0.569367	0.286925	0.67804
399	N	0.540037	0.272254	0.972494
400	H	0.963271	0.233896	0.74859
401	N	0.987538	0.246006	0.971954
402	C	0.570504	0.287506	0.764199
403	H	0.543235	0.273876	0.793168
404	H	0.595742	0.330943	0.766629
405	H	0.595739	0.269303	0.766632
406	C	0.707531	0.897082	0.007479
407	N	0.653039	0.869448	0.008222
408	C	0.625406	0.814954	0.007492
409	N	0.65304	0.788094	0.008205
410	C	0.707536	0.814946	0.007465
411	N	0.734387	0.86944	0.008198
412	C	0.819459	0.620921	0.007638
413	N	0.873961	0.648531	0.008191
414	C	0.901564	0.703029	0.007652
415	N	0.873961	0.729925	0.008208
416	C	0.819464	0.703033	0.007659
417	N	0.792567	0.648531	0.008198
418	C	0.791434	0.731051	0.010411
419	C	0.777826	0.744668	0.052335
420	C	0.749448	0.773047	0.053444
421	C	0.735562	0.786936	0.011351
422	N	0.750229	0.772262	0.30581
423	H	0.7886	0.733892	0.081922
424	N	0.776478	0.74601	0.30528
425	C	0.734981	0.787509	0.097511
426	H	0.748612	0.77388	0.126484
427	H	0.691543	0.769308	0.099938
428	H	0.753181	0.830947	0.099939
429	C	0.79143	0.564876	0.010402
430	C	0.77782	0.537663	0.05233
431	C	0.749446	0.980905	0.053448
432	C	0.73557	0.953119	0.011361
433	N	0.750238	0.982452	0.305814
434	H	0.788594	0.559218	0.081914
435	N	0.776481	0.534951	0.305276
436	C	0.734983	0.951985	0.09752
437	H	0.748611	0.97925	0.126489
438	H	0.753187	0.926751	0.099954
439	H	0.691545	0.926743	0.099948
440	C	0.95761	0.731055	0.010413
441	C	0.984825	0.744668	0.052341
442	C	0.541582	0.773043	0.05346
443	C	0.569368	0.786924	0.011372
444	N	0.540038	0.772254	0.305826
445	H	0.963271	0.733896	0.081925
446	N	0.987538	0.746006	0.305286
447	C	0.570503	0.787505	0.097531
448	H	0.543237	0.773876	0.1265
449	H	0.595743	0.830943	0.099961
450	H	0.595739	0.769304	0.099964
451	C	0.707531	0.897082	0.340813
452	N	0.653039	0.869448	0.341556
453	C	0.625406	0.814954	0.340823
454	N	0.65304	0.788094	0.341539
455	C	0.707536	0.814946	0.340796
456	N	0.734387	0.86944	0.341529
457	C	0.819459	0.620921	0.340973
458	N	0.873961	0.648531	0.341526
459	C	0.901564	0.703029	0.340983
460	N	0.873961	0.729925	0.341543
461	C	0.819464	0.703033	0.34099
462	N	0.792567	0.648531	0.341533
463	C	0.791434	0.731051	0.343745
464	C	0.777826	0.744668	0.385669
465	C	0.749448	0.773047	0.386776
466	C	0.735562	0.786936	0.344685
467	N	0.750229	0.772262	0.639142
468	H	0.7886	0.733892	0.415256
469	N	0.776478	0.74601	0.638613
470	C	0.734981	0.787509	0.430844
471	H	0.748612	0.77388	0.459816
472	H	0.691543	0.769308	0.433271
473	H	0.753181	0.830947	0.433271
474	C	0.79143	0.564876	0.343735
475	C	0.77782	0.537663	0.385663
476	C	0.749446	0.980905	0.386782
477	C	0.73557	0.953119	0.344695
478	N	0.750238	0.982452	0.639149
479	H	0.788594	0.559218	0.415245
480	N	0.776481	0.534951	0.63861
481	C	0.734983	0.951985	0.430855
482	H	0.748611	0.97925	0.459823
483	H	0.753187	0.926751	0.433288
484	H	0.691545	0.926743	0.433281
485	C	0.95761	0.731055	0.343745
486	C	0.984825	0.744668	0.385676
487	C	0.541582	0.773043	0.386793
488	C	0.569368	0.786924	0.344705
489	N	0.540038	0.772254	0.639159
490	H	0.963271	0.733896	0.415259
491	N	0.987538	0.746006	0.63862
492	C	0.570503	0.787505	0.430865
493	H	0.543237	0.773876	0.459833
494	H	0.595743	0.830943	0.433294
495	H	0.595739	0.769304	0.433298
496	C	0.707531	0.897082	0.674148
497	N	0.653039	0.869448	0.674887
498	C	0.625406	0.814954	0.674158
499	N	0.65304	0.788094	0.674874
500	C	0.707536	0.814946	0.674131
501	N	0.734387	0.86944	0.674864
502	C	0.819459	0.620921	0.674307
503	N	0.873961	0.648531	0.674857
504	C	0.901564	0.703029	0.674317
505	N	0.873961	0.729925	0.674874
506	C	0.819464	0.703033	0.674324
507	N	0.792567	0.648531	0.674867
508	C	0.791434	0.731051	0.677079
509	C	0.777826	0.744668	0.719
510	C	0.749448	0.773047	0.72011
511	C	0.735562	0.786936	0.678019
512	N	0.750229	0.772262	0.972477
513	H	0.7886	0.733892	0.74859
514	N	0.776478	0.74601	0.971947
515	C	0.734981	0.787509	0.764179
516	H	0.748612	0.77388	0.793151
517	H	0.691543	0.769308	0.766605
518	H	0.753181	0.830947	0.766605
519	C	0.79143	0.564876	0.677069
520	C	0.77782	0.537663	0.718997
521	C	0.749446	0.980905	0.720113
522	C	0.73557	0.953119	0.678026
523	N	0.750238	0.982452	0.97248
524	H	0.788594	0.559218	0.74858
525	N	0.776481	0.534951	0.971941
526	C	0.734983	0.951985	0.764186
527	H	0.748611	0.97925	0.793154
528	H	0.753187	0.926751	0.766622
529	H	0.691545	0.926743	0.766615
530	C	0.95761	0.731055	0.677079
531	C	0.984825	0.744668	0.719007
532	C	0.541582	0.773043	0.720127
533	C	0.569368	0.786924	0.67804
534	N	0.540038	0.772254	0.972494
535	H	0.963271	0.733896	0.74859
536	N	0.987538	0.746006	0.971954
537	C	0.570503	0.787505	0.764199
538	H	0.543237	0.773876	0.793168
539	H	0.595743	0.830943	0.766629
540	H	0.595739	0.769304	0.766632
