data_C348H180N36_2018-02-15_10:36:07
#******************************************
#
# CIF file created by Zeo++
# Zeo++ is an open source package to
# analyze microporous materials
#
#*******************************************

_cell_length_a		25.6616   
_cell_length_b		29.4341   
_cell_length_c		29.9554   
_cell_angle_alpha		90.0006   
_cell_angle_beta		89.9997   
_cell_angle_gamma		90.2421   

_symmetry_space_group_name_H-M		'P1'
_symmetry_Int_Tables_number		1
_symmetry_cell_setting		Triclinic

loop_
_symmetry_equiv_pos_as_xyz
'+x,+y,+z'

loop_
_atom_site_label
_atom_site_type_symbol
_atom_site_fract_x
_atom_site_fract_y
_atom_site_fract_z
1	C	0.048127	0.000785	0.002155
2	C	0.992114	0.500434	0.002166
3	C	0.964107	0.45852	0.003501
4	C	0.963896	0.042032	0.00335
5	C	0.048127	0.500784	0.002155
6	C	0.076341	0.459186	0.003315
7	C	0.076132	0.042702	0.00351
8	N	0.29899	0.291403	0.001605
9	C	0.325934	0.252232	0.007101
10	N	0.298935	0.212681	0.002955
11	C	0.411031	0.29127	0.002958
12	C	0.465674	0.290523	0.006044
13	C	0.243088	0.374834	0.005463
14	C	0.214163	0.415257	0.008121
15	C	0.242596	0.128744	0.007347
16	N	0.741232	0.20982	0.001634
17	C	0.714288	0.248992	0.007131
18	N	0.74129	0.288542	0.002978
19	C	0.629178	0.209972	0.002914
20	C	0.574539	0.210712	0.006016
21	C	0.797172	0.126401	0.005573
22	C	0.82607	0.085963	0.008177
23	C	0.797636	0.372476	0.007406
24	C	0.992113	0.000437	0.002166
25	C	0.964106	0.958519	0.003501
26	C	0.963896	0.542032	0.00335
27	C	0.076341	0.959188	0.003315
28	C	0.076132	0.542702	0.00351
29	N	0.29899	0.791402	0.001605
30	C	0.325934	0.752233	0.007101
31	N	0.298936	0.71268	0.002955
32	C	0.411031	0.791269	0.002958
33	C	0.465673	0.790522	0.006044
34	C	0.243088	0.874833	0.005463
35	C	0.214163	0.915256	0.008121
36	C	0.242596	0.628746	0.007347
37	N	0.741231	0.709819	0.001634
38	C	0.714287	0.748991	0.007131
39	N	0.741289	0.788541	0.002978
40	C	0.629181	0.709972	0.002914
41	C	0.574539	0.710712	0.006016
42	C	0.797176	0.626401	0.005573
43	C	0.82607	0.585962	0.008177
44	C	0.797636	0.872475	0.007406
45	H	0.195503	0.001701	0.986314
46	H	0.195503	0.001701	0.319649
47	H	0.195503	0.001701	0.652982
48	C	0.157027	0.001422	0.995101
49	C	0.048127	0.000785	0.335486
50	C	0.157027	0.001422	0.328436
51	C	0.048127	0.000785	0.668822
52	C	0.157027	0.001422	0.661768
53	C	0.908743	0.457239	0.998312
54	C	0.883211	0.499796	0.995147
55	C	0.908569	0.042656	0.997868
56	C	0.993135	0.420003	0.016504
57	C	0.992649	0.080901	0.016402
58	H	0.844731	0.99953	0.986368
59	C	0.131663	0.458564	0.997818
60	C	0.157027	0.501423	0.995101
61	C	0.131491	0.043977	0.998269
62	C	0.047596	0.420312	0.016355
63	C	0.04711	0.081224	0.016499
64	H	0.065813	0.391492	0.026959
65	H	0.975154	0.390962	0.027165
66	H	0.065093	0.110264	0.027156
67	H	0.974434	0.109729	0.026992
68	C	0.24752	0.292404	0.991041
69	C	0.247464	0.211118	0.992176
70	N	0.222905	0.251612	0.985797
71	C	0.380697	0.252689	0.014347
72	C	0.492252	0.25142	0.021253
73	C	0.461769	0.213333	0.033936
74	C	0.407117	0.213823	0.030266
75	C	0.220681	0.334249	0.988601
76	C	0.16193	0.418002	0.992677
77	C	0.142073	0.378316	0.971566
78	C	0.169683	0.337092	0.971028
79	C	0.220462	0.169116	0.99013
80	C	0.169631	0.165849	0.97217
81	C	0.141978	0.124445	0.97255
82	C	0.161693	0.084866	0.993662
83	C	0.21375	0.088017	0.009552
84	H	0.231044	0.441968	0.024569
85	H	0.279476	0.374742	0.019442
86	H	0.106597	0.378782	0.956063
87	H	0.152328	0.309313	0.956717
88	H	0.152427	0.193448	0.957632
89	H	0.106679	0.123703	0.95675
90	H	0.278936	0.129096	0.021421
91	H	0.230475	0.061386	0.026053
92	H	0.386879	0.18516	0.039066
93	H	0.479149	0.184452	0.045608
94	H	0.48593	0.318394	0.995097
95	H	0.393935	0.319778	0.990123
96	C	0.792706	0.20882	0.991081
97	C	0.792761	0.290103	0.99221
98	N	0.817322	0.24961	0.985834
99	C	0.659515	0.248542	0.014327
100	C	0.547961	0.249807	0.021242
101	C	0.578444	0.287901	0.033908
102	C	0.633095	0.28741	0.030243
103	C	0.819544	0.166975	0.988651
104	C	0.878304	0.083219	0.992731
105	C	0.898164	0.12291	0.971629
106	C	0.87054	0.164127	0.971072
107	C	0.819767	0.332104	0.99018
108	C	0.870606	0.335365	0.972237
109	C	0.898249	0.376774	0.972591
110	C	0.878539	0.416354	0.993709
111	C	0.826499	0.413191	0.009633
112	H	0.80918	0.059245	0.024606
113	H	0.760733	0.126484	0.019454
114	H	0.933639	0.122445	0.956126
115	H	0.887899	0.191909	0.95677
116	H	0.887783	0.307778	0.957652
117	H	0.933535	0.377521	0.956774
118	H	0.761277	0.372126	0.021439
119	H	0.809747	0.439848	0.026078
120	H	0.653334	0.316074	0.039042
121	H	0.561064	0.316784	0.045576
122	H	0.554279	0.182806	0.995154
123	H	0.646289	0.181418	0.990187
124	C	0.992112	0.500434	0.335499
125	C	0.964105	0.45852	0.336835
126	C	0.908743	0.457242	0.331645
127	C	0.883211	0.499795	0.328481
128	C	0.90857	0.042656	0.331202
129	C	0.963898	0.042032	0.336681
130	C	0.993133	0.420003	0.349837
131	C	0.992647	0.080901	0.349734
132	H	0.844731	0.999529	0.319703
133	C	0.048127	0.500784	0.335486
134	C	0.076341	0.459186	0.336648
135	C	0.131663	0.458564	0.331151
136	C	0.157027	0.501423	0.328436
137	C	0.131491	0.043977	0.331601
138	C	0.076132	0.042702	0.336841
139	C	0.047596	0.420312	0.349687
140	C	0.04711	0.081223	0.349831
141	H	0.065812	0.391492	0.360293
142	H	0.975156	0.390962	0.360496
143	H	0.065094	0.110264	0.36049
144	H	0.974436	0.109729	0.360326
145	C	0.24752	0.292404	0.324377
146	N	0.298989	0.291403	0.334938
147	C	0.325934	0.252232	0.340433
148	N	0.298936	0.212681	0.336287
149	C	0.247464	0.211118	0.325511
150	N	0.222905	0.251612	0.31913
151	C	0.380698	0.252689	0.347681
152	C	0.411029	0.29127	0.33629
153	C	0.465675	0.290523	0.339378
154	C	0.49225	0.25142	0.354584
155	C	0.461771	0.213333	0.36727
156	C	0.407119	0.213823	0.363598
157	C	0.220681	0.334249	0.321934
158	C	0.243088	0.374834	0.338794
159	C	0.214163	0.415257	0.341455
160	C	0.16193	0.418002	0.326011
161	C	0.142073	0.378316	0.3049
162	C	0.169683	0.337092	0.304362
163	C	0.220461	0.169116	0.323464
164	C	0.169632	0.165849	0.305505
165	C	0.141978	0.124445	0.305885
166	C	0.161693	0.084866	0.326995
167	C	0.21375	0.088018	0.342884
168	C	0.242596	0.128745	0.34068
169	H	0.231044	0.441968	0.357903
170	H	0.279476	0.374742	0.352775
171	H	0.106598	0.378781	0.289396
172	H	0.152327	0.309313	0.290051
173	H	0.152427	0.193448	0.290967
174	H	0.106679	0.123703	0.290085
175	H	0.278936	0.129096	0.354755
176	H	0.230475	0.061386	0.359385
177	H	0.386879	0.18516	0.372401
178	H	0.479151	0.184452	0.378941
179	H	0.48593	0.318394	0.328431
180	H	0.393936	0.319778	0.323457
181	C	0.792706	0.20882	0.324415
182	N	0.741234	0.20982	0.334968
183	C	0.714289	0.248991	0.340463
184	N	0.741288	0.288541	0.33631
185	C	0.792761	0.290103	0.325544
186	N	0.817322	0.24961	0.319168
187	C	0.659517	0.248542	0.347661
188	C	0.62918	0.209972	0.336247
189	C	0.574537	0.210712	0.339348
190	C	0.547963	0.249807	0.354574
191	C	0.578442	0.287901	0.36724
192	C	0.633093	0.28741	0.363574
193	C	0.819544	0.166975	0.321986
194	C	0.797174	0.126401	0.338908
195	C	0.826072	0.085963	0.341508
196	C	0.878304	0.083219	0.326066
197	C	0.898164	0.12291	0.304963
198	C	0.87054	0.164127	0.304406
199	C	0.819768	0.332104	0.323515
200	C	0.870607	0.335365	0.30557
201	C	0.898245	0.376774	0.305925
202	C	0.878539	0.416354	0.327043
203	C	0.826497	0.413191	0.342967
204	C	0.797638	0.372476	0.340737
205	H	0.809178	0.059245	0.357939
206	H	0.760735	0.126484	0.352788
207	H	0.933639	0.122445	0.289459
208	H	0.887899	0.191909	0.290105
209	H	0.887783	0.307778	0.290985
210	H	0.933535	0.377521	0.290107
211	H	0.761274	0.372123	0.354771
212	H	0.809749	0.439848	0.359411
213	H	0.653332	0.316074	0.372374
214	H	0.561062	0.316784	0.378907
215	H	0.554279	0.182806	0.32849
216	H	0.646285	0.181418	0.323522
217	C	0.992114	0.500434	0.668832
218	C	0.964107	0.45852	0.670167
219	C	0.908745	0.457239	0.664979
220	C	0.883209	0.499796	0.661815
221	C	0.908571	0.042656	0.664535
222	C	0.963896	0.042032	0.670017
223	C	0.993135	0.420003	0.68317
224	C	0.992648	0.080901	0.68307
225	H	0.844733	0.99953	0.653035
226	C	0.048127	0.500784	0.668822
227	C	0.076341	0.459186	0.66998
228	C	0.131663	0.458564	0.664485
229	C	0.157027	0.501423	0.661768
230	C	0.13149	0.043977	0.664933
231	C	0.076132	0.042702	0.670177
232	C	0.047596	0.420312	0.68302
233	C	0.047109	0.081224	0.683163
234	H	0.065812	0.391492	0.693625
235	H	0.975154	0.390962	0.693829
236	H	0.065094	0.110264	0.693822
237	H	0.974434	0.109729	0.693659
238	C	0.24752	0.292404	0.657709
239	N	0.29899	0.291403	0.668271
240	C	0.325934	0.252232	0.673766
241	N	0.298936	0.212681	0.66962
242	C	0.247464	0.211118	0.658844
243	N	0.222905	0.251612	0.652461
244	C	0.380698	0.252689	0.681013
245	C	0.411031	0.29127	0.669623
246	C	0.465673	0.290523	0.672711
247	C	0.492251	0.25142	0.687917
248	C	0.461769	0.213333	0.700602
249	C	0.407117	0.213823	0.696934
250	C	0.220681	0.334249	0.655268
251	C	0.243088	0.374834	0.67213
252	C	0.214163	0.415257	0.674787
253	C	0.16193	0.418002	0.659344
254	C	0.142073	0.378316	0.638233
255	C	0.169683	0.337092	0.637696
256	C	0.220461	0.169116	0.656797
257	C	0.169631	0.165849	0.638837
258	C	0.141978	0.124445	0.639218
259	C	0.161693	0.084866	0.660326
260	C	0.21375	0.088017	0.676216
261	C	0.242596	0.128744	0.674013
262	H	0.231044	0.441968	0.691235
263	H	0.279476	0.374743	0.686108
264	H	0.106597	0.378781	0.62273
265	H	0.152327	0.309313	0.623384
266	H	0.152427	0.193448	0.624299
267	H	0.106679	0.123703	0.623418
268	H	0.278936	0.129096	0.688087
269	H	0.230475	0.061386	0.692717
270	H	0.386879	0.18516	0.705733
271	H	0.479149	0.184452	0.712273
272	H	0.485932	0.318395	0.661765
273	H	0.393937	0.319778	0.656791
274	C	0.792704	0.20882	0.657749
275	N	0.741231	0.20982	0.668301
276	C	0.714287	0.248992	0.673796
277	N	0.74129	0.288542	0.669643
278	C	0.792763	0.290103	0.658877
279	N	0.817324	0.24961	0.652501
280	C	0.659515	0.248542	0.680993
281	C	0.629182	0.209972	0.66958
282	C	0.574539	0.210712	0.672681
283	C	0.547961	0.249807	0.687907
284	C	0.578444	0.287901	0.700572
285	C	0.633095	0.28741	0.696907
286	C	0.819546	0.166975	0.655318
287	C	0.797176	0.126401	0.67224
288	C	0.82607	0.085963	0.674841
289	C	0.878302	0.083219	0.659398
290	C	0.898162	0.12291	0.638296
291	C	0.870542	0.164127	0.637739
292	C	0.819769	0.332104	0.656847
293	C	0.870604	0.335365	0.638904
294	C	0.898247	0.376774	0.639258
295	C	0.878541	0.416354	0.660376
296	C	0.826499	0.413191	0.6763
297	C	0.797636	0.372476	0.67407
298	H	0.80918	0.059245	0.691272
299	H	0.760733	0.126484	0.686121
300	H	0.933637	0.122445	0.622793
301	H	0.887901	0.191909	0.623438
302	H	0.887785	0.307778	0.624319
303	H	0.933537	0.377521	0.623441
304	H	0.761276	0.372123	0.688104
305	H	0.809746	0.439848	0.692744
306	H	0.653334	0.316074	0.705707
307	H	0.561063	0.316784	0.712243
308	H	0.554281	0.182805	0.661821
309	H	0.646287	0.181419	0.656854
310	C	0.908743	0.957242	0.998312
311	C	0.88321	0.999795	0.995147
312	C	0.908573	0.542655	0.997868
313	C	0.993134	0.920002	0.016504
314	C	0.992648	0.580899	0.016402
315	H	0.844732	0.499527	0.986368
316	C	0.131663	0.958563	0.997818
317	C	0.131491	0.543976	0.998269
318	C	0.047596	0.920311	0.016355
319	H	0.195503	0.501702	0.986314
320	C	0.047109	0.581222	0.016499
321	H	0.065812	0.891491	0.026959
322	H	0.975157	0.890961	0.027165
323	H	0.065094	0.610264	0.027156
324	H	0.974433	0.60973	0.026992
325	C	0.24752	0.792404	0.991041
326	C	0.247464	0.711117	0.992176
327	N	0.222905	0.751611	0.985797
328	C	0.380698	0.752688	0.014347
329	C	0.492251	0.751421	0.021253
330	C	0.461772	0.713332	0.033936
331	C	0.407121	0.713821	0.030266
332	C	0.220681	0.834247	0.988601
333	C	0.161931	0.918001	0.992677
334	C	0.142073	0.878315	0.971566
335	C	0.169683	0.837091	0.971028
336	C	0.220461	0.669114	0.99013
337	C	0.169632	0.665849	0.97217
338	C	0.141978	0.624444	0.97255
339	C	0.161693	0.584864	0.993662
340	C	0.21375	0.588017	0.009552
341	H	0.231044	0.941967	0.024569
342	H	0.279476	0.874741	0.019442
343	H	0.106598	0.878781	0.956063
344	H	0.152327	0.809313	0.956717
345	H	0.152427	0.693447	0.957632
346	H	0.106679	0.623704	0.95675
347	H	0.278936	0.629096	0.021421
348	H	0.230475	0.561385	0.026053
349	H	0.386879	0.685161	0.039066
350	H	0.479148	0.684451	0.045608
351	H	0.485929	0.818395	0.995097
352	H	0.393939	0.819778	0.990123
353	C	0.792706	0.70882	0.991081
354	C	0.792761	0.790101	0.99221
355	N	0.817321	0.74961	0.985834
356	C	0.659514	0.748543	0.014327
357	C	0.547961	0.749807	0.021242
358	C	0.578443	0.787899	0.033908
359	C	0.633095	0.78741	0.030243
360	C	0.819547	0.666974	0.988651
361	C	0.878304	0.58322	0.992731
362	C	0.898164	0.622909	0.971629
363	C	0.87054	0.664127	0.971072
364	C	0.819767	0.832104	0.99018
365	C	0.870606	0.835365	0.972237
366	C	0.898248	0.876773	0.972591
367	C	0.878539	0.916354	0.993709
368	C	0.826498	0.91319	0.009633
369	H	0.80918	0.559244	0.024606
370	H	0.760732	0.626483	0.019454
371	H	0.933639	0.622447	0.956126
372	H	0.887902	0.691907	0.95677
373	H	0.887786	0.807777	0.957652
374	H	0.933534	0.87752	0.956774
375	H	0.761276	0.872125	0.021439
376	H	0.809746	0.939847	0.026078
377	H	0.653334	0.816074	0.039042
378	H	0.561063	0.816785	0.045576
379	H	0.554278	0.682806	0.995154
380	H	0.646288	0.681416	0.990187
381	C	0.992115	0.000433	0.335499
382	C	0.964108	0.958519	0.336835
383	C	0.908743	0.957242	0.331645
384	C	0.88321	0.999795	0.328481
385	C	0.908569	0.542654	0.331202
386	C	0.963898	0.542033	0.336681
387	C	0.993132	0.920002	0.349837
388	C	0.992646	0.5809	0.349734
389	H	0.844732	0.49953	0.319703
390	C	0.076341	0.959188	0.336648
391	C	0.131663	0.958563	0.331151
392	C	0.13149	0.543976	0.331601
393	C	0.076132	0.542702	0.336841
394	C	0.047596	0.920311	0.349687
395	H	0.195503	0.501701	0.319649
396	C	0.047109	0.581222	0.349831
397	H	0.065812	0.891491	0.360293
398	H	0.975155	0.890961	0.360496
399	H	0.065093	0.610264	0.36049
400	H	0.974435	0.609727	0.360326
401	C	0.24752	0.792404	0.324377
402	N	0.29899	0.791402	0.334938
403	C	0.325934	0.752233	0.340433
404	N	0.298935	0.71268	0.336287
405	C	0.247464	0.711117	0.325511
406	N	0.222905	0.751611	0.31913
407	C	0.380697	0.752688	0.347681
408	C	0.411029	0.791269	0.33629
409	C	0.465675	0.790522	0.339378
410	C	0.492249	0.751421	0.354584
411	C	0.46177	0.713332	0.36727
412	C	0.407119	0.713821	0.363598
413	C	0.220681	0.834247	0.321934
414	C	0.243088	0.874833	0.338794
415	C	0.214163	0.915256	0.341455
416	C	0.16193	0.918001	0.326011
417	C	0.142073	0.878315	0.3049
418	C	0.169683	0.83709	0.304362
419	C	0.220462	0.669117	0.323464
420	C	0.169631	0.665849	0.305505
421	C	0.141978	0.624444	0.305885
422	C	0.161693	0.584864	0.326995
423	C	0.21375	0.588017	0.342884
424	C	0.242596	0.628746	0.34068
425	H	0.231044	0.941967	0.357903
426	H	0.279476	0.874742	0.352775
427	H	0.106597	0.87878	0.289396
428	H	0.152328	0.809313	0.290051
429	H	0.152427	0.69345	0.290967
430	H	0.106679	0.623703	0.290085
431	H	0.278936	0.629096	0.354755
432	H	0.230475	0.561385	0.359385
433	H	0.386879	0.685161	0.372401
434	H	0.47915	0.684451	0.378941
435	H	0.48593	0.818395	0.328431
436	H	0.393935	0.819777	0.323457
437	C	0.792706	0.70882	0.324415
438	N	0.741233	0.709819	0.334968
439	C	0.714289	0.748992	0.340463
440	N	0.741287	0.788541	0.33631
441	C	0.792761	0.790104	0.325544
442	N	0.817321	0.74961	0.319168
443	C	0.659516	0.748543	0.347661
444	C	0.629179	0.709972	0.336247
445	C	0.574537	0.710713	0.339348
446	C	0.547963	0.749807	0.354574
447	C	0.578441	0.7879	0.36724
448	C	0.633093	0.78741	0.363574
449	C	0.819547	0.666974	0.321986
450	C	0.797174	0.626401	0.338908
451	C	0.826072	0.585962	0.341508
452	C	0.878304	0.58322	0.326066
453	C	0.898164	0.622909	0.304963
454	C	0.87054	0.664126	0.304406
455	C	0.819767	0.832103	0.323515
456	C	0.870606	0.835365	0.30557
457	C	0.898248	0.876776	0.305925
458	C	0.878539	0.916353	0.327043
459	C	0.826496	0.91319	0.342967
460	C	0.797637	0.872475	0.340737
461	H	0.809182	0.559244	0.357939
462	H	0.760734	0.626483	0.352788
463	H	0.933639	0.622446	0.289459
464	H	0.887903	0.691907	0.290105
465	H	0.887786	0.807777	0.290985
466	H	0.933534	0.87752	0.290107
467	H	0.761274	0.872126	0.354771
468	H	0.809748	0.939847	0.359411
469	H	0.653332	0.816075	0.372374
470	H	0.561065	0.816785	0.378907
471	H	0.554278	0.682806	0.32849
472	H	0.646288	0.68142	0.323522
473	C	0.992113	0.000434	0.668832
474	C	0.964106	0.958519	0.670167
475	C	0.908745	0.957242	0.664979
476	C	0.883208	0.999795	0.661815
477	C	0.908571	0.542654	0.664535
478	C	0.963896	0.542033	0.670017
479	C	0.993134	0.920002	0.68317
480	C	0.992648	0.5809	0.68307
481	H	0.84473	0.49953	0.653035
482	C	0.076341	0.959189	0.66998
483	C	0.131663	0.958563	0.664485
484	C	0.131491	0.543976	0.664933
485	C	0.076132	0.542702	0.670177
486	C	0.047596	0.920312	0.68302
487	H	0.195503	0.501701	0.652982
488	C	0.04711	0.581222	0.683163
489	H	0.065813	0.891491	0.693625
490	H	0.975157	0.890961	0.693829
491	H	0.065093	0.610264	0.693822
492	H	0.974433	0.609727	0.693659
493	C	0.24752	0.792404	0.657709
494	N	0.29899	0.791402	0.668271
495	C	0.325934	0.752233	0.673766
496	N	0.298935	0.71268	0.66962
497	C	0.247464	0.711117	0.658844
498	N	0.222905	0.751611	0.652461
499	C	0.380697	0.752688	0.681013
500	C	0.411031	0.79127	0.669623
501	C	0.465673	0.790522	0.672711
502	C	0.492251	0.751421	0.687917
503	C	0.461772	0.713332	0.700602
504	C	0.407121	0.713822	0.696934
505	C	0.220681	0.834247	0.655268
506	C	0.243088	0.874833	0.67213
507	C	0.214163	0.915256	0.674787
508	C	0.16193	0.918001	0.659344
509	C	0.142073	0.878315	0.638233
510	C	0.169683	0.837091	0.637696
511	C	0.220461	0.669114	0.656797
512	C	0.169632	0.665849	0.638837
513	C	0.141978	0.624444	0.639218
514	C	0.161694	0.584864	0.660326
515	C	0.21375	0.588017	0.676216
516	C	0.242596	0.628746	0.674013
517	H	0.231044	0.941967	0.691235
518	H	0.279476	0.874742	0.686108
519	H	0.106597	0.878781	0.62273
520	H	0.152327	0.809313	0.623384
521	H	0.152427	0.693446	0.624299
522	H	0.106679	0.623704	0.623418
523	H	0.278936	0.629096	0.688087
524	H	0.230475	0.561385	0.692717
525	H	0.386879	0.685161	0.705733
526	H	0.479148	0.684451	0.712273
527	H	0.485931	0.818395	0.661765
528	H	0.393937	0.819777	0.656791
529	C	0.792704	0.70882	0.657749
530	N	0.741235	0.709819	0.668301
531	C	0.714287	0.748992	0.673796
532	N	0.741289	0.788541	0.669643
533	C	0.792763	0.790104	0.658877
534	N	0.817323	0.74961	0.652501
535	C	0.659514	0.74854	0.680993
536	C	0.629181	0.709972	0.66958
537	C	0.574539	0.710713	0.672681
538	C	0.54796	0.749807	0.687907
539	C	0.578443	0.7879	0.700572
540	C	0.633094	0.78741	0.696907
541	C	0.819545	0.666974	0.655318
542	C	0.797175	0.626402	0.67224
543	C	0.82607	0.585962	0.674841
544	C	0.878306	0.58322	0.659398
545	C	0.898162	0.622909	0.638296
546	C	0.870542	0.664127	0.637739
547	C	0.819769	0.832103	0.656847
548	C	0.870604	0.835365	0.638904
549	C	0.898246	0.876776	0.639258
550	C	0.878541	0.916353	0.660376
551	C	0.826498	0.913191	0.6763
552	C	0.797635	0.872475	0.67407
553	H	0.809179	0.559244	0.691272
554	H	0.760732	0.626483	0.686121
555	H	0.933637	0.622446	0.622793
556	H	0.887901	0.691907	0.623438
557	H	0.887784	0.807777	0.624319
558	H	0.933536	0.87752	0.623441
559	H	0.761276	0.872126	0.688104
560	H	0.809746	0.939847	0.692744
561	H	0.653333	0.816075	0.705707
562	H	0.561063	0.816785	0.712243
563	H	0.55428	0.682806	0.661821
564	H	0.646286	0.68142	0.656854
