data_C288H144N216O72_2018-02-15_10:32:34
#******************************************
#
# CIF file created by Zeo++
# Zeo++ is an open source package to
# analyze microporous materials
#
#*******************************************

_cell_length_a		43.2202   
_cell_length_b		43.2202   
_cell_length_c		30.1136   
_cell_angle_alpha		90   
_cell_angle_beta		90   
_cell_angle_gamma		120   

_symmetry_space_group_name_H-M		'P1'
_symmetry_Int_Tables_number		1
_symmetry_cell_setting		Monoclinic

loop_
_symmetry_equiv_pos_as_xyz
'+x,+y,+z'

loop_
_atom_site_label
_atom_site_type_symbol
_atom_site_fract_x
_atom_site_fract_y
_atom_site_fract_z
1	C	0.127932	0.320023	0.288597
2	N	0.152664	0.355383	0.955559
3	C	0.188319	0.367344	0.95525
4	N	0.198954	0.342618	0.955522
5	C	0.175265	0.306959	0.955224
6	N	0.139904	0.296334	0.955546
7	C	0.213683	0.403812	0.960404
8	C	0.186372	0.281597	0.960367
9	C	0.091466	0.308909	0.96044
10	O	0.160173	0.24689	0.963134
11	O	0.08293	0.335092	0.96311
12	O	0.248403	0.412348	0.963061
13	C	0.366405	0.176213	0.374339
14	N	0.341676	0.140851	0.040669
15	C	0.306018	0.128881	0.040947
16	N	0.295384	0.153608	0.040689
17	C	0.319075	0.189265	0.041017
18	N	0.354437	0.199903	0.040736
19	C	0.28067	0.09241	0.035775
20	C	0.307962	0.214625	0.035897
21	C	0.402875	0.187316	0.035865
22	O	0.334148	0.249341	0.033205
23	O	0.41138	0.161116	0.033071
24	O	0.245955	0.083882	0.033068
25	C	0.223429	0.212944	0.008331
26	N	0.211991	0.234714	0.992018
27	C	0.233965	0.269646	0.314481
28	C	0.270904	0.283285	0.321295
29	N	0.282343	0.261516	0.337608
30	C	0.260369	0.226581	0.015129
31	H	0.205072	0.186925	0.015299
32	H	0.28926	0.309307	0.314345
33	N	0.221332	0.291135	0.299934
34	H	0.239113	0.31627	0.29563
35	N	0.273	0.205091	0.029686
36	H	0.255223	0.179956	0.033968
37	C	0.282364	0.009562	0.008237
38	N	0.260588	0.476343	0.991961
39	C	0.22565	0.463377	0.314446
40	C	0.212018	0.486687	0.321213
41	N	0.233793	0.019904	0.337496
42	C	0.268729	0.03287	0.015009
43	H	0.308387	0.017229	0.015195
44	H	0.185994	0.479017	0.314261
45	N	0.204155	0.429247	0.299928
46	H	0.17902	0.421889	0.295631
47	N	0.290217	0.066993	0.029557
48	H	0.315354	0.074357	0.033853
49	C	0.485735	0.271848	0.008315
50	N	0.018947	0.283285	0.992018
51	C	0.031901	0.26131	0.314469
52	C	0.008591	0.224368	0.32125
53	N	0.475381	0.21293	0.337555
54	C	0.462423	0.234906	0.015089
55	H	0.478079	0.290205	0.015298
56	H	0.016255	0.206011	0.314293
57	N	0.066033	0.273945	0.299953
58	H	0.073388	0.256166	0.295659
59	N	0.428305	0.222277	0.029653
60	H	0.420955	0.240058	0.033966
61	C	0.127932	0.320023	0.621929
62	N	0.152664	0.355383	0.288892
63	C	0.188319	0.367344	0.288583
64	N	0.198954	0.342618	0.288857
65	C	0.175265	0.306959	0.288558
66	N	0.139904	0.296334	0.288879
67	C	0.213683	0.403812	0.293739
68	C	0.186372	0.281597	0.293703
69	C	0.091466	0.308909	0.293775
70	O	0.160173	0.24689	0.296468
71	O	0.08293	0.335092	0.296445
72	O	0.248403	0.412348	0.296396
73	C	0.366405	0.176213	0.707674
74	N	0.341676	0.140851	0.374001
75	C	0.306018	0.128881	0.37428
76	N	0.295384	0.153608	0.374021
77	C	0.319075	0.189265	0.374349
78	N	0.354437	0.199903	0.374067
79	C	0.28067	0.09241	0.369109
80	C	0.307962	0.214625	0.369229
81	C	0.402875	0.187316	0.369199
82	O	0.334148	0.249341	0.366539
83	O	0.41138	0.161116	0.366403
84	O	0.245955	0.083882	0.366403
85	C	0.223429	0.212944	0.341663
86	N	0.211991	0.234714	0.325351
87	C	0.233965	0.269646	0.647814
88	C	0.270904	0.283285	0.654628
89	N	0.282343	0.261516	0.670943
90	C	0.260369	0.226581	0.348461
91	H	0.205072	0.186925	0.34863
92	H	0.28926	0.309307	0.647678
93	N	0.221332	0.291135	0.633266
94	H	0.239113	0.31627	0.628962
95	N	0.273	0.205091	0.363019
96	H	0.255223	0.179956	0.367303
97	C	0.282364	0.009562	0.34157
98	N	0.260588	0.476343	0.325294
99	C	0.22565	0.463377	0.647778
100	C	0.212018	0.486687	0.654545
101	N	0.233793	0.019904	0.670827
102	C	0.268729	0.03287	0.348341
103	H	0.308387	0.017229	0.348527
104	H	0.185994	0.479017	0.647595
105	N	0.204155	0.429247	0.633262
106	H	0.17902	0.421889	0.628965
107	N	0.290217	0.066993	0.362889
108	H	0.315354	0.074357	0.367187
109	C	0.485735	0.271848	0.34165
110	N	0.018947	0.283285	0.325352
111	C	0.031901	0.26131	0.647801
112	C	0.008591	0.224368	0.654582
113	N	0.475381	0.21293	0.67089
114	C	0.462423	0.234906	0.348421
115	H	0.478079	0.290205	0.34863
116	H	0.016255	0.206011	0.647625
117	N	0.066033	0.273945	0.633286
118	H	0.073388	0.256166	0.628992
119	N	0.428305	0.222277	0.362986
120	H	0.420955	0.240058	0.367299
121	C	0.127932	0.320023	0.955263
122	N	0.152664	0.355383	0.622224
123	C	0.188319	0.367344	0.621915
124	N	0.198954	0.342618	0.622191
125	C	0.175265	0.306959	0.621892
126	N	0.139904	0.296334	0.622211
127	C	0.213683	0.403812	0.627073
128	C	0.186372	0.281597	0.627036
129	C	0.091466	0.308909	0.627109
130	O	0.160173	0.24689	0.629802
131	O	0.08293	0.335092	0.629779
132	O	0.248403	0.412348	0.629729
133	C	0.366405	0.176213	0.041007
134	N	0.341676	0.140851	0.707335
135	C	0.306018	0.128881	0.707614
136	N	0.295384	0.153608	0.707355
137	C	0.319075	0.189265	0.707684
138	N	0.354437	0.199903	0.707402
139	C	0.28067	0.09241	0.702441
140	C	0.307962	0.214625	0.702563
141	C	0.402875	0.187316	0.70253
142	O	0.334148	0.249341	0.69987
143	O	0.41138	0.161116	0.699737
144	O	0.245955	0.083882	0.699734
145	C	0.223429	0.212944	0.674998
146	N	0.211991	0.234714	0.658683
147	C	0.233965	0.269646	0.981145
148	C	0.270904	0.283285	0.98796
149	N	0.282343	0.261516	0.004276
150	C	0.260369	0.226581	0.681795
151	H	0.205072	0.186925	0.681965
152	H	0.28926	0.309307	0.981013
153	N	0.221332	0.291135	0.9666
154	H	0.239113	0.31627	0.962297
155	N	0.273	0.205091	0.69635
156	H	0.255223	0.179956	0.700634
157	C	0.282364	0.009562	0.674905
158	N	0.260588	0.476343	0.658626
159	C	0.22565	0.463377	0.981112
160	C	0.212018	0.486687	0.98788
161	N	0.233793	0.019904	0.004161
162	C	0.268729	0.03287	0.681676
163	H	0.308387	0.017229	0.681862
164	H	0.185994	0.479017	0.980926
165	N	0.204155	0.429247	0.966594
166	H	0.17902	0.421889	0.962297
167	N	0.290217	0.066993	0.696224
168	H	0.315354	0.074357	0.700521
169	C	0.485735	0.271848	0.674981
170	N	0.018947	0.283285	0.658686
171	C	0.031901	0.26131	0.981135
172	C	0.008591	0.224368	0.987916
173	N	0.475381	0.21293	0.004223
174	C	0.462423	0.234906	0.681756
175	H	0.478079	0.290205	0.681965
176	H	0.016255	0.206011	0.980959
177	N	0.066033	0.273945	0.96662
178	H	0.073388	0.256166	0.962323
179	N	0.428305	0.222277	0.69632
180	H	0.420955	0.240058	0.700631
181	C	0.127933	0.820024	0.288597
182	N	0.152664	0.855381	0.955559
183	C	0.188319	0.867344	0.95525
184	N	0.198954	0.842618	0.955522
185	C	0.175265	0.806959	0.955224
186	N	0.139903	0.796334	0.955546
187	C	0.213684	0.903813	0.960404
188	C	0.186372	0.781597	0.960367
189	C	0.091467	0.80891	0.96044
190	O	0.160172	0.746889	0.963134
191	O	0.082929	0.835092	0.96311
192	O	0.248402	0.912346	0.963061
193	C	0.366406	0.676213	0.374339
194	N	0.341677	0.640851	0.040669
195	C	0.306017	0.628882	0.040947
196	N	0.295384	0.653608	0.040689
197	C	0.319075	0.689264	0.041017
198	N	0.354437	0.699903	0.040736
199	C	0.280669	0.592411	0.035775
200	C	0.307962	0.714624	0.035897
201	C	0.402875	0.687316	0.035865
202	O	0.334148	0.749342	0.033205
203	O	0.411379	0.661115	0.033071
204	O	0.245955	0.583883	0.033068
205	C	0.223429	0.712943	0.008331
206	N	0.211992	0.734715	0.992018
207	C	0.233966	0.769647	0.314481
208	C	0.270904	0.783286	0.321295
209	N	0.282343	0.761517	0.337608
210	C	0.260369	0.726579	0.015129
211	H	0.205073	0.686926	0.015299
212	H	0.28926	0.809308	0.314345
213	N	0.221332	0.791135	0.299934
214	H	0.239113	0.81627	0.29563
215	N	0.273	0.705091	0.029686
216	H	0.255223	0.679956	0.033968
217	C	0.282364	0.509562	0.008237
218	N	0.260588	0.976343	0.991961
219	C	0.225651	0.963377	0.314446
220	C	0.212019	0.986688	0.321213
221	N	0.233793	0.519904	0.337496
222	C	0.268729	0.53287	0.015009
223	H	0.308386	0.51723	0.015195
224	H	0.185993	0.979017	0.314261
225	N	0.204155	0.929247	0.299928
226	H	0.179021	0.921889	0.295631
227	N	0.290218	0.566992	0.029557
228	H	0.315353	0.574356	0.033853
229	C	0.485734	0.771845	0.008315
230	N	0.018947	0.783286	0.992018
231	C	0.031902	0.761311	0.314469
232	C	0.008591	0.72437	0.32125
233	N	0.47538	0.71293	0.337555
234	C	0.462422	0.734904	0.015089
235	H	0.478078	0.790205	0.015298
236	H	0.016256	0.706013	0.314293
237	N	0.066032	0.773945	0.299953
238	H	0.073387	0.756165	0.295659
239	N	0.428305	0.722278	0.029653
240	H	0.420955	0.740058	0.033966
241	C	0.127933	0.820024	0.621929
242	N	0.152664	0.855381	0.288892
243	C	0.188319	0.867344	0.288583
244	N	0.198954	0.842618	0.288857
245	C	0.175265	0.806959	0.288558
246	N	0.139903	0.796334	0.288879
247	C	0.213684	0.903813	0.293739
248	C	0.186372	0.781597	0.293703
249	C	0.091467	0.80891	0.293775
250	O	0.160172	0.746889	0.296468
251	O	0.082929	0.835092	0.296445
252	O	0.248402	0.912346	0.296396
253	C	0.366406	0.676213	0.707674
254	N	0.341677	0.640851	0.374001
255	C	0.306017	0.628882	0.37428
256	N	0.295384	0.653608	0.374021
257	C	0.319075	0.689264	0.374349
258	N	0.354437	0.699903	0.374067
259	C	0.280669	0.592411	0.369109
260	C	0.307962	0.714624	0.369229
261	C	0.402875	0.687316	0.369199
262	O	0.334148	0.749342	0.366539
263	O	0.411379	0.661115	0.366403
264	O	0.245955	0.583883	0.366403
265	C	0.223429	0.712943	0.341663
266	N	0.211992	0.734715	0.325351
267	C	0.233966	0.769647	0.647814
268	C	0.270904	0.783286	0.654628
269	N	0.282343	0.761517	0.670943
270	C	0.260369	0.726579	0.348464
271	H	0.205073	0.686926	0.34863
272	H	0.28926	0.809308	0.647678
273	N	0.221332	0.791135	0.633266
274	H	0.239113	0.81627	0.628962
275	N	0.273	0.705091	0.363019
276	H	0.255223	0.679956	0.367303
277	C	0.282364	0.509562	0.34157
278	N	0.260588	0.976343	0.325294
279	C	0.225651	0.963377	0.647778
280	C	0.212019	0.986688	0.654545
281	N	0.233793	0.519904	0.670827
282	C	0.268729	0.53287	0.348341
283	H	0.308386	0.51723	0.348527
284	H	0.185993	0.979017	0.647595
285	N	0.204155	0.929247	0.633262
286	H	0.179021	0.921889	0.628965
287	N	0.290218	0.566992	0.362889
288	H	0.315353	0.574356	0.367187
289	C	0.485734	0.771845	0.34165
290	N	0.018947	0.783286	0.325352
291	C	0.031902	0.761311	0.647801
292	C	0.008591	0.72437	0.654582
293	N	0.47538	0.71293	0.67089
294	C	0.462422	0.734904	0.348421
295	H	0.478078	0.790205	0.34863
296	H	0.016256	0.706013	0.647625
297	N	0.066032	0.773945	0.633286
298	H	0.073387	0.756165	0.628992
299	N	0.428305	0.722278	0.362986
300	H	0.420955	0.740058	0.367299
301	C	0.127933	0.820024	0.955263
302	N	0.152664	0.855381	0.622224
303	C	0.188319	0.867344	0.621915
304	N	0.198954	0.842618	0.622191
305	C	0.175265	0.806959	0.621892
306	N	0.139903	0.796334	0.622211
307	C	0.213684	0.903813	0.627073
308	C	0.186372	0.781597	0.627036
309	C	0.091467	0.80891	0.627109
310	O	0.160172	0.746889	0.629802
311	O	0.082929	0.835092	0.629779
312	O	0.248402	0.912346	0.629729
313	C	0.366406	0.676213	0.041007
314	N	0.341677	0.640851	0.707335
315	C	0.306017	0.628882	0.707614
316	N	0.295384	0.653608	0.707355
317	C	0.319075	0.689264	0.707684
318	N	0.354437	0.699903	0.707402
319	C	0.280669	0.592411	0.702441
320	C	0.307962	0.714624	0.702563
321	C	0.402875	0.687316	0.70253
322	O	0.334148	0.749342	0.69987
323	O	0.411379	0.661115	0.699737
324	O	0.245955	0.583883	0.699734
325	C	0.223429	0.712943	0.674998
326	N	0.211992	0.734715	0.658683
327	C	0.233966	0.769647	0.981145
328	C	0.270904	0.783286	0.98796
329	N	0.282343	0.761517	0.004276
330	C	0.260369	0.726579	0.681795
331	H	0.205073	0.686926	0.681965
332	H	0.28926	0.809308	0.981013
333	N	0.221332	0.791135	0.9666
334	H	0.239113	0.81627	0.962297
335	N	0.273	0.705091	0.69635
336	H	0.255223	0.679956	0.700634
337	C	0.282364	0.509562	0.674905
338	N	0.260588	0.976343	0.658626
339	C	0.225651	0.963377	0.981112
340	C	0.212019	0.986688	0.98788
341	N	0.233793	0.519904	0.004161
342	C	0.268729	0.53287	0.681676
343	H	0.308386	0.51723	0.681862
344	H	0.185993	0.979017	0.980926
345	N	0.204155	0.929247	0.966594
346	H	0.179021	0.921889	0.962297
347	N	0.290218	0.566992	0.696224
348	H	0.315353	0.574356	0.700521
349	C	0.485734	0.771845	0.674981
350	N	0.018947	0.783286	0.658686
351	C	0.031902	0.761311	0.981135
352	C	0.008591	0.72437	0.987916
353	N	0.47538	0.71293	0.004223
354	C	0.462422	0.734904	0.681756
355	H	0.478078	0.790205	0.681965
356	H	0.016256	0.706013	0.980959
357	N	0.066032	0.773945	0.96662
358	H	0.073387	0.756165	0.962323
359	N	0.428305	0.722278	0.69632
360	H	0.420955	0.740058	0.700631
361	C	0.627932	0.320023	0.288597
362	N	0.652664	0.355383	0.955559
363	C	0.688318	0.367344	0.95525
364	N	0.698953	0.342618	0.955522
365	C	0.675266	0.306959	0.955224
366	N	0.639904	0.296334	0.955546
367	C	0.713683	0.403812	0.960404
368	C	0.686372	0.281597	0.960367
369	C	0.591466	0.308909	0.96044
370	O	0.660173	0.24689	0.963134
371	O	0.58293	0.335092	0.96311
372	O	0.748402	0.412348	0.963061
373	C	0.866405	0.176213	0.374339
374	N	0.841676	0.140851	0.040669
375	C	0.806018	0.128881	0.040947
376	N	0.795382	0.153608	0.040689
377	C	0.819076	0.189265	0.041017
378	N	0.854437	0.199903	0.040736
379	C	0.78067	0.09241	0.035775
380	C	0.807962	0.214625	0.035897
381	C	0.902875	0.187316	0.035865
382	O	0.834149	0.249341	0.033205
383	O	0.911378	0.161116	0.033071
384	O	0.745954	0.083882	0.033068
385	C	0.723429	0.212944	0.008331
386	N	0.711991	0.234714	0.992018
387	C	0.733964	0.269646	0.314481
388	C	0.770904	0.283285	0.321295
389	N	0.782342	0.261516	0.337608
390	C	0.76037	0.226581	0.015129
391	H	0.705072	0.186925	0.015299
392	H	0.78926	0.309307	0.314345
393	N	0.721333	0.291135	0.299934
394	H	0.739113	0.31627	0.29563
395	N	0.773001	0.205091	0.029686
396	H	0.755222	0.179956	0.033968
397	C	0.782364	0.009562	0.008237
398	N	0.760587	0.476343	0.991961
399	C	0.72565	0.463377	0.314446
400	C	0.712018	0.486687	0.321213
401	N	0.733792	0.019904	0.337496
402	C	0.768729	0.03287	0.015009
403	H	0.808384	0.017229	0.015195
404	H	0.685994	0.479017	0.314261
405	N	0.704154	0.429247	0.299928
406	H	0.679019	0.421889	0.295631
407	N	0.790217	0.066993	0.029557
408	H	0.815354	0.074357	0.033853
409	C	0.985735	0.271848	0.008315
410	N	0.518948	0.283285	0.992018
411	C	0.5319	0.26131	0.314469
412	C	0.508591	0.224368	0.32125
413	N	0.975381	0.21293	0.337555
414	C	0.962423	0.234906	0.015089
415	H	0.978076	0.290205	0.015298
416	H	0.516255	0.206011	0.314293
417	N	0.566033	0.273945	0.299953
418	H	0.573388	0.256166	0.295659
419	N	0.928305	0.222277	0.029653
420	H	0.920955	0.240058	0.033966
421	C	0.627932	0.320023	0.621929
422	N	0.652664	0.355383	0.288892
423	C	0.688318	0.367344	0.288583
424	N	0.698953	0.342618	0.288857
425	C	0.675266	0.306959	0.288558
426	N	0.639904	0.296334	0.288879
427	C	0.713683	0.403812	0.293739
428	C	0.686372	0.281597	0.293703
429	C	0.591466	0.308909	0.293775
430	O	0.660173	0.24689	0.296468
431	O	0.58293	0.335092	0.296445
432	O	0.748402	0.412348	0.296396
433	C	0.866405	0.176213	0.707674
434	N	0.841676	0.140851	0.374001
435	C	0.806018	0.128881	0.37428
436	N	0.795382	0.153608	0.374021
437	C	0.819076	0.189265	0.374349
438	N	0.854437	0.199903	0.374067
439	C	0.78067	0.09241	0.369109
440	C	0.807962	0.214625	0.369229
441	C	0.902875	0.187316	0.369199
442	O	0.834149	0.249341	0.366539
443	O	0.911378	0.161116	0.366403
444	O	0.745954	0.083882	0.366403
445	C	0.723429	0.212944	0.341663
446	N	0.711991	0.234714	0.325351
447	C	0.733964	0.269646	0.647814
448	C	0.770904	0.283285	0.654628
449	N	0.782342	0.261516	0.670943
450	C	0.76037	0.226581	0.348461
451	H	0.705072	0.186925	0.34863
452	H	0.78926	0.309307	0.647678
453	N	0.721333	0.291135	0.633266
454	H	0.739113	0.31627	0.628962
455	N	0.773001	0.205091	0.363019
456	H	0.755222	0.179956	0.367303
457	C	0.782364	0.009562	0.34157
458	N	0.760587	0.476343	0.325294
459	C	0.72565	0.463377	0.647778
460	C	0.712018	0.486687	0.654545
461	N	0.733792	0.019904	0.670827
462	C	0.768729	0.03287	0.348341
463	H	0.808384	0.017229	0.348527
464	H	0.685994	0.479017	0.647595
465	N	0.704154	0.429247	0.633262
466	H	0.679019	0.421889	0.628965
467	N	0.790217	0.066993	0.362889
468	H	0.815354	0.074357	0.367187
469	C	0.985735	0.271848	0.34165
470	N	0.518948	0.283285	0.325352
471	C	0.5319	0.26131	0.647801
472	C	0.508591	0.224368	0.654582
473	N	0.975381	0.21293	0.67089
474	C	0.962423	0.234906	0.348421
475	H	0.978076	0.290205	0.34863
476	H	0.516255	0.206011	0.647625
477	N	0.566033	0.273945	0.633286
478	H	0.573388	0.256166	0.628992
479	N	0.928305	0.222277	0.362986
480	H	0.920955	0.240058	0.367299
481	C	0.627932	0.320023	0.955263
482	N	0.652664	0.355383	0.622224
483	C	0.688318	0.367344	0.621915
484	N	0.698953	0.342618	0.622191
485	C	0.675266	0.306959	0.621892
486	N	0.639904	0.296334	0.622211
487	C	0.713683	0.403812	0.627073
488	C	0.686372	0.281597	0.627036
489	C	0.591466	0.308909	0.627109
490	O	0.660173	0.24689	0.629802
491	O	0.58293	0.335092	0.629779
492	O	0.748402	0.412348	0.629729
493	C	0.866405	0.176213	0.041007
494	N	0.841676	0.140851	0.707335
495	C	0.806018	0.128881	0.707614
496	N	0.795382	0.153608	0.707355
497	C	0.819076	0.189265	0.707684
498	N	0.854437	0.199903	0.707402
499	C	0.78067	0.09241	0.702441
500	C	0.807962	0.214625	0.702563
501	C	0.902875	0.187316	0.70253
502	O	0.834149	0.249341	0.69987
503	O	0.911378	0.161116	0.699737
504	O	0.745954	0.083882	0.699734
505	C	0.723429	0.212944	0.674998
506	N	0.711991	0.234714	0.658683
507	C	0.733964	0.269646	0.981145
508	C	0.770904	0.283285	0.98796
509	N	0.782342	0.261516	0.004276
510	C	0.76037	0.226581	0.681795
511	H	0.705072	0.186925	0.681965
512	H	0.78926	0.309307	0.981013
513	N	0.721333	0.291135	0.9666
514	H	0.739113	0.31627	0.962297
515	N	0.773001	0.205091	0.69635
516	H	0.755222	0.179956	0.700634
517	C	0.782364	0.009562	0.674905
518	N	0.760587	0.476343	0.658626
519	C	0.72565	0.463377	0.981112
520	C	0.712018	0.486687	0.98788
521	N	0.733792	0.019904	0.004161
522	C	0.768729	0.03287	0.681676
523	H	0.808384	0.017229	0.681862
524	H	0.685994	0.479017	0.980926
525	N	0.704154	0.429247	0.966594
526	H	0.679019	0.421889	0.962297
527	N	0.790217	0.066993	0.696224
528	H	0.815354	0.074357	0.700521
529	C	0.985735	0.271848	0.674981
530	N	0.518948	0.283285	0.658686
531	C	0.5319	0.26131	0.981135
532	C	0.508591	0.224368	0.987916
533	N	0.975381	0.21293	0.004223
534	C	0.962423	0.234906	0.681756
535	H	0.978076	0.290205	0.681965
536	H	0.516255	0.206011	0.980959
537	N	0.566033	0.273945	0.96662
538	H	0.573388	0.256166	0.962323
539	N	0.928305	0.222277	0.69632
540	H	0.920955	0.240058	0.700631
541	C	0.627932	0.820024	0.288597
542	N	0.652663	0.855381	0.955559
543	C	0.688319	0.867344	0.95525
544	N	0.698955	0.842618	0.955522
545	C	0.675265	0.806959	0.955224
546	N	0.639903	0.796334	0.955546
547	C	0.713684	0.903813	0.960404
548	C	0.686371	0.781597	0.960367
549	C	0.591465	0.80891	0.96044
550	O	0.660172	0.746889	0.963134
551	O	0.58293	0.835092	0.96311
552	O	0.748402	0.912346	0.963061
553	C	0.866406	0.676213	0.374339
554	N	0.841677	0.640851	0.040669
555	C	0.806017	0.628882	0.040947
556	N	0.795384	0.653608	0.040689
557	C	0.819075	0.689264	0.041017
558	N	0.854438	0.699903	0.040736
559	C	0.780669	0.592411	0.035775
560	C	0.807962	0.714624	0.035897
561	C	0.902874	0.687316	0.035865
562	O	0.834148	0.749342	0.033205
563	O	0.911379	0.661115	0.033071
564	O	0.745956	0.583883	0.033068
565	C	0.72343	0.712943	0.008331
566	N	0.711992	0.734715	0.992018
567	C	0.733966	0.769647	0.314481
568	C	0.770905	0.783286	0.321295
569	N	0.782344	0.761517	0.337608
570	C	0.760368	0.726579	0.015129
571	H	0.705072	0.686926	0.015299
572	H	0.789259	0.809308	0.314345
573	N	0.721332	0.791135	0.299934
574	H	0.739112	0.81627	0.29563
575	N	0.772999	0.705091	0.029686
576	H	0.755224	0.679956	0.033968
577	C	0.782363	0.509562	0.008237
578	N	0.760588	0.976343	0.991961
579	C	0.725651	0.963377	0.314446
580	C	0.712018	0.986688	0.321213
581	N	0.733793	0.519904	0.337496
582	C	0.768728	0.53287	0.015009
583	H	0.808386	0.51723	0.015195
584	H	0.685994	0.979017	0.314261
585	N	0.704155	0.929247	0.299928
586	H	0.679021	0.921889	0.295631
587	N	0.790218	0.566992	0.029557
588	H	0.815352	0.574356	0.033853
589	C	0.985733	0.771845	0.008315
590	N	0.518948	0.783286	0.992018
591	C	0.531902	0.761311	0.314469
592	C	0.508592	0.72437	0.32125
593	N	0.975379	0.71293	0.337555
594	C	0.962422	0.734904	0.015089
595	H	0.978078	0.790205	0.015298
596	H	0.516256	0.706013	0.314293
597	N	0.566033	0.773945	0.299953
598	H	0.573388	0.756165	0.295659
599	N	0.928304	0.722278	0.029653
600	H	0.920954	0.740058	0.033966
601	C	0.627932	0.820024	0.621929
602	N	0.652663	0.855381	0.288892
603	C	0.688319	0.867344	0.288583
604	N	0.698955	0.842618	0.288857
605	C	0.675265	0.806959	0.288558
606	N	0.639903	0.796334	0.288879
607	C	0.713684	0.903813	0.293739
608	C	0.686371	0.781597	0.293703
609	C	0.591465	0.80891	0.293775
610	O	0.660172	0.746889	0.296468
611	O	0.58293	0.835092	0.296445
612	O	0.748402	0.912346	0.296396
613	C	0.866406	0.676213	0.707674
614	N	0.841677	0.640851	0.374001
615	C	0.806017	0.628882	0.37428
616	N	0.795384	0.653608	0.374021
617	C	0.819075	0.689264	0.374349
618	N	0.854438	0.699903	0.374067
619	C	0.780669	0.592411	0.369109
620	C	0.807962	0.714624	0.369229
621	C	0.902874	0.687316	0.369199
622	O	0.834148	0.749342	0.366539
623	O	0.911379	0.661115	0.366403
624	O	0.745956	0.583883	0.366403
625	C	0.72343	0.712943	0.341663
626	N	0.711992	0.734715	0.325351
627	C	0.733966	0.769647	0.647814
628	C	0.770905	0.783286	0.654628
629	N	0.782344	0.761517	0.670943
630	C	0.760368	0.726579	0.348461
631	H	0.705072	0.686926	0.34863
632	H	0.789259	0.809308	0.647678
633	N	0.721332	0.791135	0.633266
634	H	0.739112	0.81627	0.628962
635	N	0.772999	0.705091	0.363019
636	H	0.755224	0.679956	0.367303
637	C	0.782363	0.509562	0.34157
638	N	0.760588	0.976343	0.325294
639	C	0.725651	0.963377	0.647778
640	C	0.712018	0.986688	0.654545
641	N	0.733793	0.519904	0.670827
642	C	0.768728	0.53287	0.348341
643	H	0.808386	0.51723	0.348527
644	H	0.685994	0.979017	0.647595
645	N	0.704155	0.929247	0.633262
646	H	0.679021	0.921889	0.628965
647	N	0.790218	0.566992	0.362889
648	H	0.815352	0.574356	0.367187
649	C	0.985733	0.771845	0.34165
650	N	0.518948	0.783286	0.325352
651	C	0.531902	0.761311	0.647801
652	C	0.508592	0.72437	0.654582
653	N	0.975379	0.71293	0.67089
654	C	0.962422	0.734904	0.348421
655	H	0.978078	0.790205	0.34863
656	H	0.516256	0.706013	0.647625
657	N	0.566033	0.773945	0.633286
658	H	0.573388	0.756165	0.628992
659	N	0.928304	0.722278	0.362986
660	H	0.920954	0.740058	0.367299
661	C	0.627932	0.820024	0.955263
662	N	0.652663	0.855381	0.622224
663	C	0.688319	0.867344	0.621915
664	N	0.698955	0.842618	0.622191
665	C	0.675265	0.806959	0.621892
666	N	0.639903	0.796334	0.622211
667	C	0.713684	0.903813	0.627073
668	C	0.686371	0.781597	0.627036
669	C	0.591465	0.80891	0.627109
670	O	0.660172	0.746889	0.629802
671	O	0.58293	0.835092	0.629779
672	O	0.748402	0.912346	0.629729
673	C	0.866406	0.676213	0.041007
674	N	0.841677	0.640851	0.707335
675	C	0.806017	0.628882	0.707614
676	N	0.795384	0.653608	0.707355
677	C	0.819075	0.689264	0.707684
678	N	0.854438	0.699903	0.707402
679	C	0.780669	0.592411	0.702441
680	C	0.807962	0.714624	0.702563
681	C	0.902874	0.687316	0.70253
682	O	0.834148	0.749342	0.69987
683	O	0.911379	0.661115	0.699737
684	O	0.745956	0.583883	0.699734
685	C	0.72343	0.712943	0.674998
686	N	0.711992	0.734715	0.658683
687	C	0.733966	0.769647	0.981145
688	C	0.770905	0.783286	0.98796
689	N	0.782344	0.761517	0.004276
690	C	0.760368	0.726579	0.681795
691	H	0.705072	0.686926	0.681965
692	H	0.789259	0.809308	0.981013
693	N	0.721332	0.791135	0.9666
694	H	0.739112	0.81627	0.962297
695	N	0.772999	0.705091	0.69635
696	H	0.755224	0.679956	0.700634
697	C	0.782363	0.509562	0.674905
698	N	0.760588	0.976343	0.658626
699	C	0.725651	0.963377	0.981112
700	C	0.712018	0.986688	0.98788
701	N	0.733793	0.519904	0.004161
702	C	0.768728	0.53287	0.681676
703	H	0.808386	0.51723	0.681862
704	H	0.685994	0.979017	0.980926
705	N	0.704155	0.929247	0.966594
706	H	0.679021	0.921889	0.962297
707	N	0.790218	0.566992	0.696224
708	H	0.815352	0.574356	0.700521
709	C	0.985733	0.771845	0.674981
710	N	0.518948	0.783286	0.658686
711	C	0.531902	0.761311	0.981135
712	C	0.508592	0.72437	0.987916
713	N	0.975379	0.71293	0.004223
714	C	0.962422	0.734904	0.681756
715	H	0.978078	0.790205	0.681965
716	H	0.516256	0.706013	0.980959
717	N	0.566033	0.773945	0.96662
718	H	0.573388	0.756165	0.962323
719	N	0.928304	0.722278	0.69632
720	H	0.920954	0.740058	0.700631
