data_C144H117N45O18_2018-02-15_10:33:26
#******************************************
#
# CIF file created by Zeo++
# Zeo++ is an open source package to
# analyze microporous materials
#
#*******************************************

_cell_length_a		29.0301   
_cell_length_b		29.0302   
_cell_length_c		30.0652   
_cell_angle_alpha		90   
_cell_angle_beta		90   
_cell_angle_gamma		120   

_symmetry_space_group_name_H-M		'P1'
_symmetry_Int_Tables_number		1
_symmetry_cell_setting		Monoclinic

loop_
_symmetry_equiv_pos_as_xyz
'+x,+y,+z'

loop_
_atom_site_label
_atom_site_type_symbol
_atom_site_fract_x
_atom_site_fract_y
_atom_site_fract_z
1	C	0.364957	0.645066	0.959019
2	N	0.385036	0.698556	0.959329
3	C	0.35232	0.719383	0.959083
4	N	0.298826	0.685967	0.959275
5	C	0.277996	0.632425	0.958983
6	N	0.311413	0.61235	0.959229
7	N	0.37463	0.77495	0.962049
8	H	0.347066	0.785204	0.952104
9	N	0.222421	0.59916	0.961863
10	H	0.2122	0.561341	0.951948
11	N	0.398193	0.622731	0.961983
12	H	0.436017	0.650292	0.952041
13	C	0.629691	0.350282	0.046626
14	N	0.612245	0.297258	0.046916
15	C	0.647037	0.278899	0.046636
16	N	0.700062	0.314478	0.046854
17	C	0.718423	0.367631	0.04656
18	N	0.682844	0.385077	0.04684
19	N	0.627267	0.223556	0.047498
20	H	0.657698	0.216314	0.054655
21	N	0.773768	0.403204	0.047342
22	H	0.781024	0.440892	0.05445
23	N	0.594117	0.370054	0.047474
24	H	0.556448	0.339628	0.054645
25	C	0.429913	0.575231	0.008449
26	C	0.410498	0.527667	0.31723
27	C	0.437857	0.499199	0.317191
28	C	0.485109	0.51725	0.008765
29	C	0.505101	0.564977	0.033794
30	C	0.477205	0.593409	0.033241
31	H	0.491939	0.627954	0.051077
32	C	0.511051	0.486789	0.008224
33	C	0.530268	0.477593	0.301308
34	C	0.556168	0.447614	0.30093
35	C	0.563032	0.425451	0.340553
36	C	0.543404	0.434564	0.047401
37	C	0.517698	0.464706	0.047895
38	H	0.526322	0.493376	0.272062
39	H	0.570252	0.442193	0.271326
40	H	0.547981	0.419878	0.076924
41	H	0.376184	0.513419	0.299117
42	H	0.503678	0.470227	0.077492
43	H	0.42245	0.464638	0.29924
44	N	0.553218	0.58424	0.057889
45	O	0.54629	0.587685	0.098745
46	O	0.588255	0.629088	0.044024
47	C	0.592058	0.395292	0.338335
48	H	0.632524	0.423438	0.327296
49	H	0.573398	0.364324	0.31288
50	C	0.400485	0.604848	0.00786
51	H	0.418891	0.639294	0.03016
52	H	0.360366	0.578035	0.020403
53	C	0.422106	0.854168	0.008519
54	C	0.469689	0.882317	0.317323
55	C	0.498155	0.938142	0.317281
56	C	0.480076	0.967346	0.008818
57	C	0.432327	0.93961	0.033822
58	C	0.403907	0.883284	0.033282
59	H	0.369342	0.863471	0.051095
60	C	0.510532	0.023748	0.008272
61	C	0.519757	0.052153	0.301348
62	C	0.549716	0.108033	0.300968
63	C	0.571872	0.137065	0.34059
64	C	0.562732	0.108334	0.047446
65	C	0.532599	0.052484	0.047943
66	H	0.503949	0.03242	0.272108
67	H	0.555129	0.127533	0.271363
68	H	0.577413	0.127602	0.076966
69	H	0.483952	0.86225	0.29923
70	H	0.527058	0.032949	0.077545
71	H	0.532725	0.957295	0.299341
72	N	0.413041	0.968468	0.057882
73	O	0.409566	0.958106	0.098742
74	O	0.368204	0.958647	0.043983
75	C	0.602003	0.196252	0.338368
76	H	0.573839	0.208555	0.32735
77	H	0.632957	0.20857	0.312899
78	C	0.392493	0.795124	0.007933
79	H	0.358038	0.779083	0.030221
80	H	0.419302	0.781819	0.02049
81	C	0.143103	0.567359	0.008232
82	C	0.114935	0.586702	0.31695
83	C	0.059108	0.559305	0.31689
84	C	0.029925	0.512083	0.008504
85	C	0.05768	0.492151	0.033582
86	C	0.114006	0.520086	0.03305
87	H	0.133833	0.505405	0.050932
88	C	0.973525	0.486137	0.007989
89	C	0.945075	0.466846	0.301096
90	C	0.889195	0.440956	0.30075
91	C	0.860205	0.434178	0.34038
92	C	0.888981	0.453879	0.047203
93	C	0.944828	0.479574	0.047666
94	H	0.964777	0.470736	0.271847
95	H	0.869664	0.426819	0.271164
96	H	0.869746	0.449368	0.07673
97	H	0.134988	0.621005	0.29882
98	H	0.964397	0.493655	0.077244
99	H	0.039939	0.574674	0.298908
100	N	0.028845	0.444062	0.057716
101	O	0.039198	0.451047	0.098573
102	O	0.038695	0.409031	0.043908
103	C	0.801013	0.405157	0.338202
104	H	0.788674	0.364667	0.327226
105	H	0.78869	0.423768	0.312716
106	C	0.202149	0.596857	0.007705
107	H	0.218195	0.578509	0.030058
108	H	0.215379	0.636971	0.020221
109	C	0.364957	0.645066	0.292353
110	N	0.385036	0.698556	0.292664
111	C	0.35232	0.719383	0.292417
112	N	0.298826	0.685967	0.29261
113	C	0.277996	0.632425	0.292316
114	N	0.311413	0.61235	0.292561
115	N	0.37463	0.77495	0.295384
116	H	0.347066	0.785204	0.285437
117	N	0.222421	0.59916	0.295196
118	H	0.2122	0.561341	0.285281
119	N	0.398193	0.622731	0.295316
120	H	0.436017	0.650292	0.285374
121	C	0.629691	0.350282	0.379961
122	N	0.612245	0.297258	0.38025
123	C	0.647037	0.278899	0.379971
124	N	0.700062	0.314478	0.380187
125	C	0.718423	0.367631	0.379894
126	N	0.682844	0.385077	0.380174
127	N	0.627267	0.223556	0.380832
128	H	0.657698	0.216314	0.38799
129	N	0.773768	0.403204	0.380676
130	H	0.781024	0.440892	0.387784
131	N	0.594117	0.370054	0.380806
132	H	0.556448	0.339628	0.387977
133	C	0.429913	0.575231	0.341781
134	C	0.410498	0.527667	0.650563
135	C	0.437857	0.499199	0.650523
136	C	0.485109	0.51725	0.342097
137	C	0.505101	0.564977	0.367129
138	C	0.477205	0.593409	0.366573
139	H	0.491939	0.627954	0.384411
140	C	0.511051	0.486789	0.341558
141	C	0.530268	0.477593	0.634641
142	C	0.556168	0.447614	0.634262
143	C	0.563032	0.425451	0.673886
144	C	0.543404	0.434564	0.380736
145	C	0.517698	0.464706	0.381228
146	H	0.526322	0.493376	0.605394
147	H	0.570252	0.442193	0.604659
148	H	0.547981	0.419878	0.410255
149	H	0.376184	0.513419	0.632449
150	H	0.503678	0.470227	0.410824
151	H	0.42245	0.464638	0.632572
152	N	0.553218	0.58424	0.391223
153	O	0.54629	0.587685	0.432078
154	O	0.588255	0.629088	0.377357
155	C	0.592058	0.395292	0.671667
156	H	0.632524	0.423438	0.660631
157	H	0.573398	0.364324	0.646212
158	C	0.400485	0.604848	0.341192
159	H	0.418891	0.639294	0.363493
160	H	0.360366	0.578035	0.353735
161	C	0.422106	0.854168	0.34185
162	C	0.469689	0.882317	0.650656
163	C	0.498155	0.938142	0.650613
164	C	0.480076	0.967346	0.34215
165	C	0.432327	0.93961	0.367156
166	C	0.403907	0.883284	0.366617
167	H	0.369342	0.863471	0.384428
168	C	0.510532	0.023748	0.341604
169	C	0.519757	0.052153	0.634681
170	C	0.549716	0.108033	0.634302
171	C	0.571872	0.137065	0.673922
172	C	0.562732	0.108334	0.380779
173	C	0.532599	0.052484	0.381278
174	H	0.503949	0.03242	0.605441
175	H	0.555129	0.127533	0.604696
176	H	0.577413	0.127602	0.410298
177	H	0.483952	0.86225	0.632562
178	H	0.527058	0.032949	0.410877
179	H	0.532725	0.957295	0.632675
180	N	0.413041	0.968468	0.391213
181	O	0.409566	0.958106	0.432074
182	O	0.368204	0.958647	0.377317
183	C	0.602003	0.196252	0.6717
184	H	0.573839	0.208555	0.660684
185	H	0.632957	0.20857	0.646232
186	C	0.392493	0.795124	0.341265
187	H	0.358038	0.779083	0.363553
188	H	0.419302	0.781819	0.353824
189	C	0.143103	0.567359	0.341564
190	C	0.114935	0.586702	0.650284
191	C	0.059108	0.559305	0.650224
192	C	0.029925	0.512083	0.341837
193	C	0.05768	0.492151	0.366916
194	C	0.114006	0.520086	0.366384
195	H	0.133833	0.505405	0.384265
196	C	0.973525	0.486137	0.341322
197	C	0.945075	0.466846	0.634428
198	C	0.889195	0.440956	0.634082
199	C	0.860205	0.434178	0.673713
200	C	0.888981	0.453879	0.380536
201	C	0.944828	0.479574	0.380999
202	H	0.964777	0.470736	0.605182
203	H	0.869664	0.426819	0.604496
204	H	0.869746	0.449368	0.410062
205	H	0.134988	0.621005	0.632153
206	H	0.964397	0.493655	0.410578
207	H	0.039939	0.574674	0.632243
208	N	0.028845	0.444062	0.39105
209	O	0.039198	0.451047	0.431905
210	O	0.038695	0.409031	0.37724
211	C	0.801013	0.405157	0.671534
212	H	0.788674	0.364667	0.660558
213	H	0.78869	0.423768	0.646049
214	C	0.202149	0.596857	0.341039
215	H	0.218195	0.578509	0.36339
216	H	0.215379	0.636971	0.353555
217	C	0.364957	0.645066	0.625687
218	N	0.385036	0.698556	0.625996
219	C	0.35232	0.719383	0.62575
220	N	0.298826	0.685967	0.625943
221	C	0.277996	0.632425	0.62565
222	N	0.311413	0.61235	0.625893
223	N	0.37463	0.77495	0.628717
224	H	0.347066	0.785204	0.618769
225	N	0.222421	0.59916	0.628531
226	H	0.2122	0.561341	0.618612
227	N	0.398193	0.622731	0.628651
228	H	0.436017	0.650292	0.618706
229	C	0.629691	0.350282	0.713293
230	N	0.612245	0.297258	0.713583
231	C	0.647037	0.278899	0.713303
232	N	0.700062	0.314478	0.71352
233	C	0.718423	0.367631	0.713227
234	N	0.682844	0.385077	0.713506
235	N	0.627267	0.223556	0.714165
236	H	0.657698	0.216314	0.721323
237	N	0.773768	0.403204	0.714008
238	H	0.781024	0.440892	0.721116
239	N	0.594117	0.370054	0.714142
240	H	0.556448	0.339628	0.721313
241	C	0.429913	0.575231	0.675116
242	C	0.410498	0.527667	0.983895
243	C	0.437857	0.499199	0.983859
244	C	0.485109	0.51725	0.675432
245	C	0.505101	0.564977	0.700461
246	C	0.477205	0.593409	0.699909
247	H	0.491939	0.627954	0.717744
248	C	0.511051	0.486789	0.67489
249	C	0.530268	0.477593	0.967973
250	C	0.556168	0.447614	0.967597
251	C	0.563032	0.425451	0.007219
252	C	0.543404	0.434564	0.714068
253	C	0.517698	0.464706	0.714561
254	H	0.526322	0.493376	0.93873
255	H	0.570252	0.442193	0.937992
256	H	0.547981	0.419878	0.743591
257	H	0.376184	0.513419	0.965785
258	H	0.503678	0.470227	0.74416
259	H	0.42245	0.464638	0.965908
260	N	0.553218	0.58424	0.724556
261	O	0.54629	0.587685	0.765413
262	O	0.588255	0.629088	0.710689
263	C	0.592058	0.395292	0.005001
264	H	0.632524	0.423438	0.993963
265	H	0.573398	0.364324	0.979548
266	C	0.400485	0.604848	0.674528
267	H	0.418891	0.639294	0.696826
268	H	0.360366	0.578035	0.68707
269	C	0.422106	0.854168	0.675186
270	C	0.469689	0.882317	0.983988
271	C	0.498155	0.938142	0.983949
272	C	0.480076	0.967346	0.675486
273	C	0.432327	0.93961	0.700488
274	C	0.403907	0.883284	0.699949
275	H	0.369342	0.863471	0.71776
276	C	0.510532	0.023748	0.67494
277	C	0.519757	0.052153	0.968013
278	C	0.549716	0.108033	0.967634
279	C	0.571872	0.137065	0.007255
280	C	0.562732	0.108334	0.714112
281	C	0.532599	0.052484	0.71461
282	H	0.503949	0.03242	0.938773
283	H	0.555129	0.127533	0.938028
284	H	0.577413	0.127602	0.743634
285	H	0.483952	0.86225	0.965898
286	H	0.527058	0.032949	0.744213
287	H	0.532725	0.957295	0.966008
288	N	0.413041	0.968468	0.724549
289	O	0.409566	0.958106	0.76541
290	O	0.368204	0.958647	0.710649
291	C	0.602003	0.196252	0.005035
292	H	0.573839	0.208555	0.994017
293	H	0.632957	0.20857	0.979565
294	C	0.392493	0.795124	0.674597
295	H	0.358038	0.779083	0.696889
296	H	0.419302	0.781819	0.687157
297	C	0.143103	0.567359	0.6749
298	C	0.114935	0.586702	0.983616
299	C	0.059108	0.559305	0.983556
300	C	0.029925	0.512083	0.67517
301	C	0.05768	0.492151	0.700248
302	C	0.114006	0.520086	0.699716
303	H	0.133833	0.505405	0.717597
304	C	0.973525	0.486137	0.674654
305	C	0.945075	0.466846	0.967764
306	C	0.889195	0.440956	0.967418
307	C	0.860205	0.434178	0.007046
308	C	0.888981	0.453879	0.713869
309	C	0.944828	0.479574	0.714331
310	H	0.964777	0.470736	0.938514
311	H	0.869664	0.426819	0.937832
312	H	0.869746	0.449368	0.743395
313	H	0.134988	0.621005	0.965485
314	H	0.964397	0.493655	0.74391
315	H	0.039939	0.574674	0.965575
316	N	0.028845	0.444062	0.724383
317	O	0.039198	0.451047	0.76524
318	O	0.038695	0.409031	0.710573
319	C	0.801013	0.405157	0.004868
320	H	0.788674	0.364667	0.993894
321	H	0.78869	0.423768	0.979382
322	C	0.202149	0.596857	0.674371
323	H	0.218195	0.578509	0.696726
324	H	0.215379	0.636971	0.686887
