data_C144H54N54O36_2018-02-15_10:32:32
#******************************************
#
# CIF file created by Zeo++
# Zeo++ is an open source package to
# analyze microporous materials
#
#*******************************************

_cell_length_a		29.0847   
_cell_length_b		29.0853   
_cell_length_c		30.151   
_cell_angle_alpha		90   
_cell_angle_beta		90   
_cell_angle_gamma		120.001   

_symmetry_space_group_name_H-M		'P1'
_symmetry_Int_Tables_number		1
_symmetry_cell_setting		Monoclinic

loop_
_symmetry_equiv_pos_as_xyz
'+x,+y,+z'

loop_
_atom_site_label
_atom_site_type_symbol
_atom_site_fract_x
_atom_site_fract_y
_atom_site_fract_z
1	C	0.275412	0.633571	0.970954
2	N	0.306389	0.610902	0.971481
3	C	0.360152	0.640574	0.304361
4	N	0.382831	0.694222	0.971475
5	C	0.353166	0.71832	0.970941
6	N	0.299516	0.687338	0.971408
7	C	0.391984	0.617004	0.975743
8	C	0.37673	0.773727	0.308934
9	C	0.220004	0.601759	0.975611
10	O	0.343801	0.793593	0.981717
11	O	0.200118	0.548964	0.981773
12	O	0.444768	0.649932	0.981942
13	C	0.716227	0.366363	0.018126
14	N	0.68041	0.383283	0.017816
15	C	0.627364	0.348585	0.351451
16	N	0.610442	0.295847	0.017845
17	C	0.645142	0.277503	0.018152
18	N	0.69788	0.313318	0.01785
19	C	0.590448	0.366415	0.015885
20	C	0.627323	0.222759	0.349279
21	C	0.770972	0.40329	0.015881
22	O	0.664236	0.20823	0.008359
23	O	0.785492	0.45473	0.008293
24	O	0.539003	0.329505	0.008299
25	C	0.570549	0.437262	0.017954
26	C	0.539198	0.427539	0.312925
27	N	0.506261	0.44758	0.309502
28	C	0.501318	0.477419	0.008411
29	C	0.532162	0.489314	0.047735
30	C	0.567281	0.469209	0.051646
31	H	0.590106	0.476911	0.079495
32	C	0.466547	0.497365	0.002301
33	C	0.40474	0.505762	0.2891
34	C	0.400858	0.540317	0.319607
35	C	0.428926	0.550957	0.02671
36	H	0.541407	0.406025	0.28704
37	N	0.437598	0.486471	0.297714
38	C	0.462389	0.529832	0.035407
39	C	0.492237	0.54073	0.074958
40	C	0.526926	0.520598	0.081076
41	H	0.425556	0.575215	0.049473
42	H	0.385147	0.497083	0.259422
43	O	0.488599	0.571034	0.107367
44	O	0.555331	0.532238	0.119162
45	N	0.371398	0.563439	0.309872
46	H	0.334786	0.540083	0.300552
47	N	0.604704	0.418249	0.021913
48	H	0.640194	0.44286	0.033043
49	C	0.556477	0.132005	0.017984
50	C	0.566217	0.110406	0.312946
51	N	0.546174	0.057431	0.309495
52	C	0.51632	0.022624	0.008385
53	C	0.50441	0.041545	0.047717
54	C	0.524516	0.096767	0.051657
55	H	0.516798	0.111868	0.079512
56	C	0.496375	0.967912	0.002245
57	C	0.487994	0.897745	0.289007
58	C	0.45342	0.859282	0.319491
59	C	0.442757	0.876679	0.026601
60	H	0.587744	0.134149	0.287073
61	N	0.507285	0.949884	0.29765
62	C	0.463884	0.93126	0.035329
63	C	0.452973	0.950182	0.074888
64	C	0.473104	0.004998	0.081037
65	H	0.418483	0.849036	0.049346
66	H	0.496685	0.886851	0.259324
67	O	0.422649	0.916214	0.107277
68	O	0.461452	0.021734	0.119131
69	N	0.430293	0.806711	0.309724
70	H	0.453679	0.793446	0.300513
71	N	0.575486	0.18517	0.021966
72	H	0.550871	0.196046	0.033086
73	C	0.861729	0.42322	0.017952
74	C	0.883335	0.454548	0.312907
75	N	0.93631	0.487495	0.309463
76	C	0.971113	0.49247	0.008366
77	C	0.952185	0.46165	0.047705
78	C	0.896965	0.426523	0.051638
79	H	0.881861	0.403715	0.079498
80	C	0.025824	0.527244	0.002232
81	C	0.096	0.589015	0.288987
82	C	0.134456	0.592921	0.319485
83	C	0.117056	0.564888	0.026605
84	H	0.859594	0.452312	0.287026
85	N	0.043856	0.556162	0.297627
86	C	0.062474	0.531432	0.035329
87	C	0.043547	0.501613	0.074895
88	C	0.988727	0.466918	0.081038
89	H	0.144698	0.568271	0.049358
90	H	0.106897	0.608579	0.259296
91	O	0.077511	0.505277	0.107295
92	O	0.97199	0.43854	0.119137
93	N	0.187032	0.622351	0.309715
94	H	0.200307	0.658995	0.300481
95	N	0.808566	0.389058	0.021931
96	H	0.797693	0.353575	0.03307
97	C	0.275412	0.633571	0.304288
98	N	0.306389	0.610902	0.304815
99	C	0.360152	0.640574	0.637694
100	N	0.382831	0.694222	0.30481
101	C	0.353166	0.71832	0.304276
102	N	0.299516	0.687338	0.304742
103	C	0.391984	0.617004	0.309078
104	C	0.37673	0.773727	0.642268
105	C	0.220004	0.601759	0.308943
106	O	0.343801	0.793593	0.315052
107	O	0.200118	0.548964	0.315106
108	O	0.444768	0.649932	0.315277
109	C	0.716227	0.366363	0.351458
110	N	0.68041	0.383283	0.35115
111	C	0.627364	0.348585	0.684784
112	N	0.610442	0.295847	0.35118
113	C	0.645142	0.277503	0.351485
114	N	0.69788	0.313318	0.351183
115	C	0.590448	0.366415	0.349216
116	C	0.627323	0.222759	0.682612
117	C	0.770972	0.40329	0.349213
118	O	0.664236	0.20823	0.341691
119	O	0.785492	0.45473	0.341624
120	O	0.539003	0.329505	0.341631
121	C	0.570549	0.437262	0.351289
122	C	0.539198	0.427539	0.646258
123	N	0.506261	0.44758	0.642835
124	C	0.501318	0.477419	0.341744
125	C	0.532162	0.489314	0.381069
126	C	0.567281	0.469209	0.384979
127	H	0.590106	0.476911	0.412826
128	C	0.466547	0.497365	0.335634
129	C	0.40474	0.505762	0.622431
130	C	0.400858	0.540317	0.652941
131	C	0.428926	0.550957	0.360042
132	H	0.541407	0.406025	0.620375
133	N	0.437598	0.486471	0.631048
134	C	0.462389	0.529832	0.368741
135	C	0.492237	0.54073	0.408292
136	C	0.526926	0.520598	0.414408
137	H	0.425556	0.575215	0.382807
138	H	0.385147	0.497083	0.592754
139	O	0.488599	0.571034	0.440699
140	O	0.555331	0.532238	0.452496
141	N	0.371398	0.563439	0.643207
142	H	0.334786	0.540083	0.633884
143	N	0.604704	0.418249	0.355246
144	H	0.640194	0.44286	0.366376
145	C	0.556477	0.132005	0.351319
146	C	0.566217	0.110406	0.646278
147	N	0.546174	0.057431	0.642829
148	C	0.51632	0.022624	0.341717
149	C	0.50441	0.041545	0.381049
150	C	0.524516	0.096767	0.384989
151	H	0.516798	0.111868	0.412846
152	C	0.496375	0.967912	0.335578
153	C	0.487994	0.897745	0.622338
154	C	0.45342	0.859282	0.652825
155	C	0.442757	0.876679	0.359932
156	H	0.587744	0.134149	0.620405
157	N	0.507285	0.949884	0.630982
158	C	0.463884	0.93126	0.368662
159	C	0.452973	0.950182	0.408222
160	C	0.473104	0.004998	0.414372
161	H	0.418483	0.849036	0.382678
162	H	0.496685	0.886851	0.592658
163	O	0.422649	0.916214	0.440609
164	O	0.461452	0.021734	0.452463
165	N	0.430293	0.806711	0.643057
166	H	0.453679	0.793446	0.633847
167	N	0.575486	0.18517	0.355299
168	H	0.550871	0.196046	0.366419
169	C	0.861729	0.42322	0.351286
170	C	0.883335	0.454548	0.646241
171	N	0.93631	0.487495	0.642795
172	C	0.971113	0.49247	0.341697
173	C	0.952185	0.46165	0.381039
174	C	0.896965	0.426523	0.384973
175	H	0.881861	0.403715	0.412829
176	C	0.025824	0.527244	0.335565
177	C	0.096	0.589015	0.622322
178	C	0.134456	0.592921	0.652818
179	C	0.117056	0.564888	0.359939
180	H	0.859594	0.452312	0.620358
181	N	0.043856	0.556162	0.630962
182	C	0.062474	0.531432	0.368662
183	C	0.043547	0.501613	0.408229
184	C	0.988727	0.466918	0.414372
185	H	0.144698	0.568271	0.382691
186	H	0.106897	0.608579	0.592628
187	O	0.077511	0.505277	0.440629
188	O	0.97199	0.43854	0.45247
189	N	0.187032	0.622351	0.643047
190	H	0.200307	0.658995	0.633814
191	N	0.808566	0.389058	0.355262
192	H	0.797693	0.353575	0.366403
193	C	0.275412	0.633571	0.637621
194	N	0.306389	0.610902	0.638149
195	C	0.360152	0.640574	0.971027
196	N	0.382831	0.694222	0.638142
197	C	0.353166	0.71832	0.637608
198	N	0.299516	0.687338	0.638076
199	C	0.391984	0.617004	0.642411
200	C	0.37673	0.773727	0.975601
201	C	0.220004	0.601759	0.642278
202	O	0.343801	0.793593	0.648384
203	O	0.200118	0.548964	0.64844
204	O	0.444768	0.649932	0.648609
205	C	0.716227	0.366363	0.684791
206	N	0.68041	0.383283	0.684482
207	C	0.627364	0.348585	0.018117
208	N	0.610442	0.295847	0.684512
209	C	0.645142	0.277503	0.684817
210	N	0.69788	0.313318	0.684515
211	C	0.590448	0.366415	0.682552
212	C	0.627323	0.222759	0.015946
213	C	0.770972	0.40329	0.682545
214	O	0.664236	0.20823	0.675023
215	O	0.785492	0.45473	0.674957
216	O	0.539003	0.329505	0.674964
217	C	0.570549	0.437262	0.684622
218	C	0.539198	0.427539	0.979591
219	N	0.506261	0.44758	0.976168
220	C	0.501318	0.477419	0.675076
221	C	0.532162	0.489314	0.714402
222	C	0.567281	0.469209	0.718312
223	H	0.590106	0.476911	0.746162
224	C	0.466547	0.497365	0.668967
225	C	0.40474	0.505762	0.955764
226	C	0.400858	0.540317	0.986274
227	C	0.428926	0.550957	0.693378
228	H	0.541407	0.406025	0.953708
229	N	0.437598	0.486471	0.964381
230	C	0.462389	0.529832	0.702074
231	C	0.492237	0.54073	0.741625
232	C	0.526926	0.520598	0.747741
233	H	0.425556	0.575215	0.71614
234	H	0.385147	0.497083	0.926087
235	O	0.488599	0.571034	0.774032
236	O	0.555331	0.532238	0.785829
237	N	0.371398	0.563439	0.976539
238	H	0.334786	0.540083	0.967216
239	N	0.604704	0.418249	0.688578
240	H	0.640194	0.44286	0.699709
241	C	0.556477	0.132005	0.684651
242	C	0.566217	0.110406	0.979611
243	N	0.546174	0.057431	0.976161
244	C	0.51632	0.022624	0.67505
245	C	0.50441	0.041545	0.714382
246	C	0.524516	0.096767	0.718322
247	H	0.516798	0.111868	0.746179
248	C	0.496375	0.967912	0.668911
249	C	0.487994	0.897745	0.955671
250	C	0.45342	0.859282	0.986158
251	C	0.442757	0.876679	0.693268
252	H	0.587744	0.134149	0.953737
253	N	0.507285	0.949884	0.964314
254	C	0.463884	0.93126	0.701994
255	C	0.452973	0.950182	0.741555
256	C	0.473104	0.004998	0.747704
257	H	0.418483	0.849036	0.71601
258	H	0.496685	0.886851	0.92599
259	O	0.422649	0.916214	0.773942
260	O	0.461452	0.021734	0.785796
261	N	0.430293	0.806711	0.97639
262	H	0.453679	0.793446	0.96718
263	N	0.575486	0.18517	0.688631
264	H	0.550871	0.196046	0.699752
265	C	0.861729	0.42322	0.684618
266	C	0.883335	0.454548	0.979574
267	N	0.93631	0.487495	0.976128
268	C	0.971113	0.49247	0.67503
269	C	0.952185	0.46165	0.714372
270	C	0.896965	0.426523	0.718305
271	H	0.881861	0.403715	0.746165
272	C	0.025824	0.527244	0.668897
273	C	0.096	0.589015	0.955654
274	C	0.134456	0.592921	0.986151
275	C	0.117056	0.564888	0.693271
276	H	0.859594	0.452312	0.953691
277	N	0.043856	0.556162	0.964294
278	C	0.062474	0.531432	0.701994
279	C	0.043547	0.501613	0.741562
280	C	0.988727	0.466918	0.747704
281	H	0.144698	0.568271	0.716024
282	H	0.106897	0.608579	0.925964
283	O	0.077511	0.505277	0.773962
284	O	0.97199	0.43854	0.785802
285	N	0.187032	0.622351	0.97638
286	H	0.200307	0.658995	0.967147
287	N	0.808566	0.389058	0.688598
288	H	0.797693	0.353575	0.699736
