data_C360H144N72O144_2018-02-15_10:40:11
#******************************************
#
# CIF file created by Zeo++
# Zeo++ is an open source package to
# analyze microporous materials
#
#*******************************************

_cell_length_a		29.9482   
_cell_length_b		29.9482   
_cell_length_c		29.9032   
_cell_angle_alpha		90   
_cell_angle_beta		90   
_cell_angle_gamma		120   

_symmetry_space_group_name_H-M		'P1'
_symmetry_Int_Tables_number		1
_symmetry_cell_setting		Monoclinic

loop_
_symmetry_equiv_pos_as_xyz
'+x,+y,+z'

loop_
_atom_site_label
_atom_site_type_symbol
_atom_site_fract_x
_atom_site_fract_y
_atom_site_fract_z
1	C	0.029603	0.29586	0.307489
2	C	0.029503	0.234425	0.02778
3	C	0.029603	0.29586	0.640821
4	C	0.029503	0.234425	0.361115
5	C	0.029603	0.29586	0.974157
6	C	0.029503	0.234425	0.694448
7	C	0.029565	0.795742	0.307517
8	C	0.029543	0.734453	0.027929
9	C	0.029565	0.795742	0.640851
10	C	0.029543	0.734453	0.361262
11	C	0.029565	0.795742	0.974184
12	C	0.029543	0.734453	0.694595
13	O	0.045639	0.319655	0.236538
14	O	0.045221	0.22613	0.098718
15	O	0.041795	0.369892	0.280197
16	O	0.041652	0.172433	0.054719
17	O	0.045639	0.319655	0.569872
18	O	0.045221	0.22613	0.432051
19	O	0.041795	0.369892	0.61353
20	O	0.041652	0.172433	0.388052
21	O	0.045639	0.319655	0.903205
22	O	0.045221	0.22613	0.765383
23	O	0.041795	0.369892	0.946862
24	O	0.041652	0.172433	0.721385
25	O	0.045467	0.819293	0.236501
26	O	0.04533	0.726232	0.098871
27	O	0.041738	0.869694	0.280038
28	O	0.041759	0.672515	0.054884
29	O	0.045467	0.819293	0.569836
30	O	0.04533	0.726232	0.432205
31	O	0.041738	0.869694	0.613373
32	O	0.041759	0.672515	0.388216
33	O	0.045467	0.819293	0.903168
34	O	0.04533	0.726232	0.765537
35	O	0.041738	0.869694	0.946705
36	O	0.041759	0.672515	0.721552
37	C	0.113363	0.307044	0.00106
38	C	0.142015	0.361638	0.002552
39	C	0.196683	0.390497	0.002636
40	C	0.222473	0.361658	0.000816
41	C	0.196702	0.307024	0.999295
42	C	0.142037	0.281122	0.999659
43	H	0.261718	0.38128	0.000636
44	H	0.122369	0.242183	0.994329
45	H	0.122289	0.380833	0.007966
46	C	0.391013	0.195943	0.000823
47	C	0.362463	0.141828	0.007812
48	C	0.307951	0.113001	0.005325
49	C	0.282026	0.14147	0.001007
50	C	0.307988	0.195842	0.996479
51	C	0.362487	0.22152	0.993713
52	H	0.242625	0.121804	0.001134
53	H	0.382086	0.260903	0.992754
54	H	0.382081	0.122061	0.008823
55	C	0.280475	0.22337	0.329408
56	C	0.297453	0.269588	0.30517
57	C	0.269704	0.296551	0.304501
58	C	0.224283	0.27936	0.331053
59	C	0.207886	0.233666	0.023623
60	H	0.328571	0.282065	0.28437
61	C	0.235077	0.206317	0.021515
62	H	0.223466	0.175439	0.042461
63	N	0.284714	0.337486	0.273472
64	N	0.167716	0.217749	0.055587
65	O	0.280286	0.322218	0.233702
66	O	0.184629	0.223828	0.094914
67	O	0.330286	0.373208	0.279757
68	O	0.133852	0.171196	0.050505
69	C	0.280432	0.057954	0.339051
70	C	0.234734	0.029601	0.313992
71	C	0.207467	0.475121	0.312294
72	C	0.224242	0.445753	0.337643
73	C	0.269997	0.473957	0.030483
74	H	0.222735	0.04887	0.293453
75	C	0.297731	0.028674	0.029466
76	H	0.329098	0.047274	0.050002
77	N	0.16676	0.451016	0.280799
78	N	0.285514	0.448031	0.061051
79	O	0.182958	0.461981	0.241279
80	O	0.281616	0.458738	0.100991
81	O	0.133013	0.463712	0.286736
82	O	0.331017	0.457967	0.054159
83	C	0.446067	0.223446	0.334214
84	C	0.474971	0.268385	0.308317
85	C	0.058185	0.279463	0.334349
86	H	0.456141	0.279888	0.286766
87	C	0.474872	0.207328	0.026834
88	H	0.455961	0.176946	0.048323
89	N	0.055008	0.336329	0.275992
90	N	0.054779	0.219156	0.059226
91	C	0.113363	0.307044	0.334394
92	C	0.142015	0.361638	0.335884
93	C	0.196683	0.390497	0.335967
94	C	0.222473	0.361658	0.334151
95	C	0.196702	0.307024	0.332628
96	C	0.142037	0.281122	0.332994
97	H	0.261718	0.38128	0.33397
98	H	0.122369	0.242183	0.327663
99	H	0.122289	0.380833	0.341298
100	C	0.391013	0.195943	0.334156
101	C	0.362463	0.141828	0.341144
102	C	0.307951	0.113001	0.33866
103	C	0.282026	0.14147	0.334339
104	C	0.307988	0.195842	0.329811
105	C	0.362487	0.22152	0.327047
106	H	0.242625	0.121804	0.334466
107	H	0.382086	0.260903	0.326086
108	H	0.382081	0.122061	0.342157
109	C	0.280475	0.22337	0.662742
110	C	0.297453	0.269588	0.638504
111	C	0.269704	0.296551	0.637835
112	C	0.224283	0.27936	0.664387
113	C	0.207886	0.233666	0.356955
114	H	0.328571	0.282065	0.617703
115	C	0.235077	0.206317	0.354848
116	H	0.223466	0.175439	0.375796
117	N	0.284714	0.337486	0.606805
118	N	0.167716	0.217749	0.388922
119	O	0.280286	0.322218	0.567036
120	O	0.184629	0.223828	0.428249
121	O	0.330286	0.373208	0.613092
122	O	0.133852	0.171196	0.383839
123	C	0.280432	0.057954	0.672386
124	C	0.234734	0.029601	0.647326
125	C	0.207467	0.475121	0.645627
126	C	0.224242	0.445753	0.670975
127	C	0.269997	0.473957	0.363817
128	H	0.222735	0.04887	0.626786
129	C	0.297731	0.028674	0.362797
130	H	0.329098	0.047274	0.383337
131	N	0.16676	0.451016	0.614132
132	N	0.285514	0.448031	0.394386
133	O	0.182958	0.461981	0.574611
134	O	0.281616	0.458738	0.434325
135	O	0.133013	0.463712	0.620068
136	O	0.331017	0.457967	0.387494
137	C	0.446067	0.223446	0.667547
138	C	0.474971	0.268385	0.641651
139	C	0.058185	0.279463	0.667681
140	H	0.456141	0.279888	0.620098
141	C	0.474872	0.207328	0.360166
142	H	0.455961	0.176946	0.381655
143	N	0.055008	0.336329	0.609326
144	N	0.054779	0.219156	0.39256
145	C	0.113363	0.307044	0.667728
146	C	0.142015	0.361638	0.66922
147	C	0.196683	0.390497	0.669303
148	C	0.222473	0.361658	0.667484
149	C	0.196702	0.307024	0.665962
150	C	0.142037	0.281122	0.666327
151	H	0.261718	0.38128	0.667303
152	H	0.122369	0.242183	0.660996
153	H	0.122289	0.380833	0.674634
154	C	0.391013	0.195943	0.667491
155	C	0.362463	0.141828	0.674477
156	C	0.307951	0.113001	0.671992
157	C	0.282026	0.14147	0.667671
158	C	0.307988	0.195842	0.663143
159	C	0.362487	0.22152	0.660381
160	H	0.242625	0.121804	0.667798
161	H	0.382086	0.260903	0.659421
162	H	0.382081	0.122061	0.67549
163	C	0.280475	0.22337	0.996074
164	C	0.297453	0.269588	0.971836
165	C	0.269704	0.296551	0.971167
166	C	0.224283	0.27936	0.99772
167	C	0.207886	0.233666	0.690288
168	H	0.328571	0.282065	0.951036
169	C	0.235077	0.206317	0.688181
170	H	0.223466	0.175439	0.709128
171	N	0.284714	0.337486	0.940137
172	N	0.167716	0.217749	0.722254
173	O	0.280286	0.322218	0.900369
174	O	0.184629	0.223828	0.761581
175	O	0.330286	0.373208	0.946424
176	O	0.133852	0.171196	0.717171
177	C	0.280432	0.057954	0.005719
178	C	0.234734	0.029601	0.980658
179	C	0.207467	0.475121	0.978959
180	C	0.224242	0.445753	0.004308
181	C	0.269997	0.473957	0.69715
182	H	0.222735	0.04887	0.960118
183	C	0.297731	0.028674	0.696133
184	H	0.329098	0.047274	0.716669
185	N	0.16676	0.451016	0.947464
186	N	0.285514	0.448031	0.727718
187	O	0.182958	0.461981	0.907947
188	O	0.281616	0.458738	0.767657
189	O	0.133013	0.463712	0.953403
190	O	0.331017	0.457967	0.720826
191	C	0.446067	0.223446	0.00088
192	C	0.474971	0.268385	0.974983
193	C	0.058185	0.279463	0.001014
194	H	0.456141	0.279888	0.953433
195	C	0.474872	0.207328	0.693501
196	H	0.455961	0.176946	0.714991
197	N	0.055008	0.336329	0.942659
198	N	0.054779	0.219156	0.725892
199	C	0.113373	0.807001	0.001037
200	C	0.142033	0.861605	0.002349
201	C	0.196704	0.890468	0.002312
202	C	0.222492	0.861628	0.000512
203	C	0.196711	0.806993	0.999221
204	C	0.142049	0.781075	0.999736
205	H	0.261742	0.881249	0.000201
206	H	0.122388	0.742106	0.994583
207	H	0.122325	0.880825	0.00773
208	C	0.391009	0.695931	0.001101
209	C	0.362455	0.641836	0.008226
210	C	0.307937	0.613023	0.00582
211	C	0.282018	0.641497	0.001495
212	C	0.307993	0.695846	0.996803
213	C	0.362482	0.721498	0.993927
214	H	0.242614	0.621848	0.001702
215	H	0.38208	0.760879	0.992837
216	H	0.382057	0.622056	0.009263
217	C	0.280488	0.723375	0.329654
218	C	0.297317	0.769377	0.305123
219	C	0.269537	0.796305	0.304341
220	C	0.224293	0.779336	0.331086
221	C	0.208083	0.733901	0.023974
222	H	0.328305	0.781669	0.284196
223	C	0.235256	0.70653	0.021955
224	H	0.223794	0.675835	0.043097
225	N	0.284288	0.83694	0.273035
226	N	0.168189	0.718363	0.056166
227	O	0.279571	0.821282	0.233371
228	O	0.185463	0.724918	0.095392
229	O	0.329895	0.872736	0.278982
230	O	0.134283	0.671752	0.05155
231	C	0.2804	0.557979	0.339562
232	C	0.234731	0.529659	0.314464
233	C	0.207463	0.975061	0.311878
234	C	0.224276	0.945727	0.337228
235	C	0.270066	0.973962	0.03002
236	H	0.222763	0.548953	0.29392
237	C	0.297675	0.528676	0.029969
238	H	0.329031	0.54726	0.05052
239	N	0.166692	0.950898	0.280448
240	N	0.285633	0.948075	0.060586
241	O	0.182811	0.961813	0.240902
242	O	0.281792	0.958821	0.100525
243	O	0.132952	0.963594	0.286424
244	O	0.331126	0.958004	0.053645
245	C	0.446066	0.723418	0.334412
246	C	0.474936	0.768282	0.308418
247	C	0.058194	0.779425	0.334408
248	H	0.456076	0.77973	0.286846
249	C	0.47491	0.707363	0.027049
250	H	0.456031	0.677034	0.048597
251	N	0.054916	0.836099	0.275912
252	N	0.054858	0.719234	0.059376
253	C	0.113373	0.807001	0.334371
254	C	0.142033	0.861605	0.335683
255	C	0.196704	0.890468	0.335646
256	C	0.222492	0.861628	0.333847
257	C	0.196711	0.806993	0.332555
258	C	0.142049	0.781075	0.33307
259	H	0.261742	0.881249	0.333535
260	H	0.122388	0.742106	0.327916
261	H	0.122325	0.880825	0.341064
262	C	0.391009	0.695931	0.334436
263	C	0.362455	0.641836	0.341559
264	C	0.307937	0.613023	0.339154
265	C	0.282018	0.641497	0.33483
266	C	0.307993	0.695846	0.330137
267	C	0.362482	0.721498	0.32726
268	H	0.242614	0.621848	0.335034
269	H	0.38208	0.760879	0.32617
270	H	0.382057	0.622056	0.342596
271	C	0.280488	0.723375	0.662986
272	C	0.297317	0.769377	0.638457
273	C	0.269537	0.796305	0.637674
274	C	0.224293	0.779336	0.664421
275	C	0.208083	0.733901	0.357306
276	H	0.328305	0.781669	0.617529
277	C	0.235256	0.70653	0.35529
278	H	0.223794	0.675835	0.376431
279	N	0.284288	0.83694	0.606367
280	N	0.168189	0.718363	0.3895
281	O	0.279571	0.821282	0.566705
282	O	0.185463	0.724918	0.428727
283	O	0.329895	0.872736	0.612316
284	O	0.134283	0.671752	0.384882
285	C	0.2804	0.557979	0.672895
286	C	0.234731	0.529659	0.647797
287	C	0.207463	0.975061	0.645212
288	C	0.224276	0.945727	0.670561
289	C	0.270066	0.973962	0.363353
290	H	0.222763	0.548953	0.627254
291	C	0.297675	0.528676	0.363302
292	H	0.329031	0.54726	0.383852
293	N	0.166692	0.950898	0.613781
294	N	0.285633	0.948075	0.393918
295	O	0.182811	0.961813	0.574236
296	O	0.281792	0.958821	0.43386
297	O	0.132952	0.963594	0.619757
298	O	0.331126	0.958004	0.386979
299	C	0.446066	0.723418	0.667748
300	C	0.474936	0.768282	0.641751
301	C	0.058194	0.779425	0.667741
302	H	0.456076	0.77973	0.620178
303	C	0.47491	0.707363	0.360383
304	H	0.456031	0.677034	0.381932
305	N	0.054916	0.836099	0.609246
306	N	0.054858	0.719234	0.392711
307	C	0.113373	0.807001	0.667705
308	C	0.142033	0.861605	0.669016
309	C	0.196704	0.890468	0.668979
310	C	0.222492	0.861628	0.66718
311	C	0.196711	0.806993	0.665889
312	C	0.142049	0.781075	0.666404
313	H	0.261742	0.881249	0.666869
314	H	0.122388	0.742106	0.66125
315	H	0.122325	0.880825	0.674396
316	C	0.391009	0.695931	0.667768
317	C	0.362455	0.641836	0.674891
318	C	0.307937	0.613023	0.672487
319	C	0.282018	0.641497	0.668163
320	C	0.307993	0.695846	0.663471
321	C	0.362482	0.721498	0.660595
322	H	0.242614	0.621848	0.668367
323	H	0.38208	0.760879	0.659502
324	H	0.382057	0.622056	0.675928
325	C	0.280488	0.723375	0.996322
326	C	0.297317	0.769377	0.971789
327	C	0.269537	0.796305	0.971007
328	C	0.224293	0.779336	0.997753
329	C	0.208083	0.733901	0.690642
330	H	0.328305	0.781669	0.950862
331	C	0.235256	0.70653	0.688622
332	H	0.223794	0.675835	0.709764
333	N	0.284288	0.83694	0.939702
334	N	0.168189	0.718363	0.722833
335	O	0.279571	0.821282	0.900038
336	O	0.185463	0.724918	0.762059
337	O	0.329895	0.872736	0.945648
338	O	0.134283	0.671752	0.718218
339	C	0.2804	0.557979	0.00623
340	C	0.234731	0.529659	0.981129
341	C	0.207463	0.975061	0.978544
342	C	0.224276	0.945727	0.003895
343	C	0.270066	0.973962	0.696685
344	H	0.222763	0.548953	0.960586
345	C	0.297675	0.528676	0.696635
346	H	0.329031	0.54726	0.717188
347	N	0.166692	0.950898	0.947113
348	N	0.285633	0.948075	0.727253
349	O	0.182811	0.961813	0.907569
350	O	0.281792	0.958821	0.767192
351	O	0.132952	0.963594	0.953092
352	O	0.331126	0.958004	0.720311
353	C	0.446066	0.723418	0.00108
354	C	0.474936	0.768282	0.975083
355	C	0.058194	0.779425	0.001074
356	H	0.456076	0.77973	0.953514
357	C	0.47491	0.707363	0.693715
358	H	0.456031	0.677034	0.715265
359	N	0.054916	0.836099	0.942578
360	N	0.054858	0.719234	0.726043
361	C	0.613363	0.307044	0.00106
362	C	0.642015	0.361638	0.002552
363	C	0.696684	0.390497	0.002636
364	C	0.722474	0.361658	0.000816
365	C	0.696703	0.307024	0.999295
366	C	0.642037	0.281122	0.999659
367	H	0.761719	0.38128	0.000636
368	H	0.622371	0.242183	0.994329
369	H	0.622289	0.380833	0.007966
370	C	0.891014	0.195943	0.000823
371	C	0.862464	0.141828	0.007812
372	C	0.807951	0.113001	0.005325
373	C	0.782026	0.14147	0.001007
374	C	0.807987	0.195842	0.996479
375	C	0.862488	0.22152	0.993713
376	H	0.742626	0.121804	0.001134
377	H	0.882086	0.260903	0.992754
378	H	0.882082	0.122061	0.008823
379	C	0.780477	0.22337	0.329408
380	C	0.797455	0.269588	0.30517
381	C	0.769705	0.296551	0.304501
382	C	0.724283	0.27936	0.331053
383	C	0.707887	0.233666	0.023623
384	H	0.82857	0.282065	0.28437
385	C	0.735076	0.206317	0.021515
386	H	0.723467	0.175439	0.042461
387	N	0.784713	0.337486	0.273472
388	N	0.667716	0.217749	0.055587
389	O	0.780285	0.322218	0.233702
390	O	0.684629	0.223828	0.094914
391	O	0.830285	0.373208	0.279757
392	O	0.633851	0.171196	0.050505
393	C	0.780431	0.057954	0.339051
394	C	0.734733	0.029601	0.313992
395	C	0.707469	0.475121	0.312294
396	C	0.724242	0.445753	0.337643
397	C	0.769999	0.473957	0.030483
398	H	0.722734	0.04887	0.293453
399	C	0.797733	0.028674	0.029466
400	H	0.829098	0.047274	0.050002
401	N	0.66676	0.451016	0.280799
402	N	0.785515	0.448031	0.061051
403	O	0.682958	0.461981	0.241279
404	O	0.781616	0.458738	0.100991
405	O	0.633012	0.463712	0.286736
406	O	0.83102	0.457967	0.054159
407	C	0.94607	0.223446	0.334214
408	C	0.974971	0.268385	0.308317
409	C	0.529602	0.29586	0.307489
410	C	0.558187	0.279463	0.334349
411	C	0.529504	0.234425	0.02778
412	H	0.95614	0.279888	0.286766
413	C	0.974872	0.207328	0.026834
414	H	0.955961	0.176946	0.048323
415	N	0.555009	0.336329	0.275992
416	N	0.55478	0.219156	0.059226
417	O	0.54564	0.319655	0.236538
418	O	0.545221	0.22613	0.098718
419	O	0.541795	0.369892	0.280197
420	O	0.541653	0.172433	0.054719
421	C	0.613363	0.307044	0.334394
422	C	0.642015	0.361638	0.335884
423	C	0.696684	0.390497	0.335967
424	C	0.722474	0.361658	0.334151
425	C	0.696703	0.307024	0.332628
426	C	0.642037	0.281122	0.332994
427	H	0.761719	0.38128	0.33397
428	H	0.622371	0.242183	0.327663
429	H	0.622289	0.380833	0.341298
430	C	0.891014	0.195943	0.334156
431	C	0.862464	0.141828	0.341144
432	C	0.807951	0.113001	0.33866
433	C	0.782026	0.14147	0.334339
434	C	0.807987	0.195842	0.329811
435	C	0.862488	0.22152	0.327047
436	H	0.742626	0.121804	0.334466
437	H	0.882086	0.260903	0.326086
438	H	0.882082	0.122061	0.342157
439	C	0.780477	0.22337	0.662742
440	C	0.797455	0.269588	0.638504
441	C	0.769705	0.296551	0.637835
442	C	0.724283	0.27936	0.664387
443	C	0.707887	0.233666	0.356955
444	H	0.82857	0.282065	0.617703
445	C	0.735076	0.206317	0.354848
446	H	0.723467	0.175439	0.375796
447	N	0.784713	0.337486	0.606805
448	N	0.667716	0.217749	0.388922
449	O	0.780285	0.322218	0.567036
450	O	0.684629	0.223828	0.428249
451	O	0.830285	0.373208	0.613092
452	O	0.633851	0.171196	0.383839
453	C	0.780431	0.057954	0.672386
454	C	0.734733	0.029601	0.647326
455	C	0.707469	0.475121	0.645627
456	C	0.724242	0.445753	0.670975
457	C	0.769999	0.473957	0.363817
458	H	0.722734	0.04887	0.626786
459	C	0.797733	0.028674	0.362797
460	H	0.829098	0.047274	0.383337
461	N	0.66676	0.451016	0.614132
462	N	0.785515	0.448031	0.394386
463	O	0.682958	0.461981	0.574611
464	O	0.781616	0.458738	0.434325
465	O	0.633012	0.463712	0.620068
466	O	0.83102	0.457967	0.387494
467	C	0.94607	0.223446	0.667547
468	C	0.974971	0.268385	0.641651
469	C	0.529602	0.29586	0.640821
470	C	0.558187	0.279463	0.667681
471	C	0.529504	0.234425	0.361115
472	H	0.95614	0.279888	0.620098
473	C	0.974872	0.207328	0.360166
474	H	0.955961	0.176946	0.381655
475	N	0.555009	0.336329	0.609326
476	N	0.55478	0.219156	0.39256
477	O	0.54564	0.319655	0.569872
478	O	0.545221	0.22613	0.432051
479	O	0.541795	0.369892	0.61353
480	O	0.541653	0.172433	0.388052
481	C	0.613363	0.307044	0.667728
482	C	0.642015	0.361638	0.66922
483	C	0.696684	0.390497	0.669303
484	C	0.722474	0.361658	0.667484
485	C	0.696703	0.307024	0.665962
486	C	0.642037	0.281122	0.666327
487	H	0.761719	0.38128	0.667303
488	H	0.622371	0.242183	0.660996
489	H	0.622289	0.380833	0.674634
490	C	0.891014	0.195943	0.667491
491	C	0.862464	0.141828	0.674477
492	C	0.807951	0.113001	0.671992
493	C	0.782026	0.14147	0.667671
494	C	0.807987	0.195842	0.663143
495	C	0.862488	0.22152	0.660381
496	H	0.742626	0.121804	0.667798
497	H	0.882086	0.260903	0.659421
498	H	0.882082	0.122061	0.67549
499	C	0.780477	0.22337	0.996074
500	C	0.797455	0.269588	0.971836
501	C	0.769705	0.296551	0.971167
502	C	0.724283	0.27936	0.99772
503	C	0.707887	0.233666	0.690288
504	H	0.82857	0.282065	0.951036
505	C	0.735076	0.206317	0.688181
506	H	0.723467	0.175439	0.709128
507	N	0.784713	0.337486	0.940137
508	N	0.667716	0.217749	0.722254
509	O	0.780285	0.322218	0.900369
510	O	0.684629	0.223828	0.761581
511	O	0.830285	0.373208	0.946424
512	O	0.633851	0.171196	0.717171
513	C	0.780431	0.057954	0.005719
514	C	0.734733	0.029601	0.980658
515	C	0.707469	0.475121	0.978959
516	C	0.724242	0.445753	0.004308
517	C	0.769999	0.473957	0.69715
518	H	0.722734	0.04887	0.960118
519	C	0.797733	0.028674	0.696133
520	H	0.829098	0.047274	0.716669
521	N	0.66676	0.451016	0.947464
522	N	0.785515	0.448031	0.727718
523	O	0.682958	0.461981	0.907947
524	O	0.781616	0.458738	0.767657
525	O	0.633012	0.463712	0.953403
526	O	0.83102	0.457967	0.720826
527	C	0.94607	0.223446	0.00088
528	C	0.974971	0.268385	0.974983
529	C	0.529602	0.29586	0.974157
530	C	0.558187	0.279463	0.001014
531	C	0.529504	0.234425	0.694448
532	H	0.95614	0.279888	0.953433
533	C	0.974872	0.207328	0.693501
534	H	0.955961	0.176946	0.714991
535	N	0.555009	0.336329	0.942659
536	N	0.55478	0.219156	0.725892
537	O	0.54564	0.319655	0.903205
538	O	0.545221	0.22613	0.765383
539	O	0.541795	0.369892	0.946862
540	O	0.541653	0.172433	0.721385
541	C	0.613373	0.807001	0.001037
542	C	0.642034	0.861605	0.002349
543	C	0.696704	0.890468	0.002312
544	C	0.722492	0.861628	0.000512
545	C	0.696711	0.806993	0.999221
546	C	0.64205	0.781075	0.999736
547	H	0.761743	0.881249	0.000201
548	H	0.622388	0.742106	0.994583
549	H	0.622325	0.880825	0.00773
550	C	0.89101	0.695931	0.001101
551	C	0.862456	0.641836	0.008226
552	C	0.807937	0.613023	0.00582
553	C	0.782018	0.641497	0.001495
554	C	0.807994	0.695846	0.996803
555	C	0.862482	0.721498	0.993927
556	H	0.742613	0.621848	0.001702
557	H	0.882082	0.760879	0.992837
558	H	0.882057	0.622056	0.009263
559	C	0.780487	0.723375	0.329654
560	C	0.797318	0.769377	0.305123
561	C	0.769537	0.796305	0.304341
562	C	0.724293	0.779336	0.331086
563	C	0.708083	0.733901	0.023974
564	H	0.828307	0.781669	0.284196
565	C	0.735258	0.70653	0.021955
566	H	0.723794	0.675835	0.043097
567	N	0.784288	0.83694	0.273035
568	N	0.66819	0.718363	0.056166
569	O	0.779571	0.821282	0.233371
570	O	0.685464	0.724918	0.095392
571	O	0.829894	0.872736	0.278982
572	O	0.634284	0.671752	0.05155
573	C	0.780402	0.557979	0.339562
574	C	0.734731	0.529659	0.314464
575	C	0.707464	0.975061	0.311878
576	C	0.724276	0.945727	0.337228
577	C	0.770067	0.973962	0.03002
578	H	0.722764	0.548953	0.29392
579	C	0.797676	0.528676	0.029969
580	H	0.829033	0.54726	0.05052
581	N	0.666693	0.950898	0.280448
582	N	0.785634	0.948075	0.060586
583	O	0.682811	0.961813	0.240902
584	O	0.781793	0.958821	0.100525
585	O	0.632951	0.963594	0.286424
586	O	0.831127	0.958004	0.053645
587	C	0.946065	0.723418	0.334412
588	C	0.974938	0.768282	0.308418
589	C	0.529567	0.795742	0.307517
590	C	0.558194	0.779425	0.334408
591	C	0.529543	0.734453	0.027929
592	H	0.956076	0.77973	0.286846
593	C	0.974911	0.707363	0.027049
594	H	0.95603	0.677034	0.048597
595	N	0.554918	0.836099	0.275912
596	N	0.554859	0.719234	0.059376
597	O	0.545468	0.819293	0.236501
598	O	0.545331	0.726232	0.098871
599	O	0.541737	0.869694	0.280038
600	O	0.54176	0.672515	0.054884
601	C	0.613373	0.807001	0.334371
602	C	0.642034	0.861605	0.335683
603	C	0.696704	0.890468	0.335646
604	C	0.722492	0.861628	0.333847
605	C	0.696711	0.806993	0.332555
606	C	0.64205	0.781075	0.33307
607	H	0.761743	0.881249	0.333535
608	H	0.622388	0.742106	0.327916
609	H	0.622325	0.880825	0.341064
610	C	0.89101	0.695931	0.334436
611	C	0.862456	0.641836	0.341559
612	C	0.807937	0.613023	0.339154
613	C	0.782018	0.641497	0.33483
614	C	0.807994	0.695846	0.330137
615	C	0.862482	0.721498	0.32726
616	H	0.742613	0.621848	0.335034
617	H	0.882082	0.760879	0.32617
618	H	0.882057	0.622056	0.342596
619	C	0.780487	0.723375	0.662986
620	C	0.797318	0.769377	0.638457
621	C	0.769537	0.796305	0.637674
622	C	0.724293	0.779336	0.664421
623	C	0.708083	0.733901	0.357306
624	H	0.828307	0.781669	0.617529
625	C	0.735258	0.70653	0.35529
626	H	0.723794	0.675835	0.376431
627	N	0.784288	0.83694	0.606367
628	N	0.66819	0.718363	0.3895
629	O	0.779571	0.821282	0.566705
630	O	0.685464	0.724918	0.428727
631	O	0.829894	0.872736	0.612316
632	O	0.634284	0.671752	0.384882
633	C	0.780402	0.557979	0.672895
634	C	0.734731	0.529659	0.647797
635	C	0.707464	0.975061	0.645212
636	C	0.724276	0.945727	0.670561
637	C	0.770067	0.973962	0.363353
638	H	0.722764	0.548953	0.627254
639	C	0.797676	0.528676	0.363302
640	H	0.829033	0.54726	0.383852
641	N	0.666693	0.950898	0.613781
642	N	0.785634	0.948075	0.393918
643	O	0.682811	0.961813	0.574236
644	O	0.781793	0.958821	0.43386
645	O	0.632951	0.963594	0.619757
646	O	0.831127	0.958004	0.386979
647	C	0.946065	0.723418	0.667748
648	C	0.974938	0.768282	0.641751
649	C	0.529567	0.795742	0.640851
650	C	0.558194	0.779425	0.667741
651	C	0.529543	0.734453	0.361262
652	H	0.956076	0.77973	0.620178
653	C	0.974911	0.707363	0.360383
654	H	0.95603	0.677034	0.381932
655	N	0.554918	0.836099	0.609246
656	N	0.554859	0.719234	0.392711
657	O	0.545468	0.819293	0.569836
658	O	0.545331	0.726232	0.432205
659	O	0.541737	0.869694	0.613373
660	O	0.54176	0.672515	0.388216
661	C	0.613373	0.807001	0.667705
662	C	0.642034	0.861605	0.669016
663	C	0.696704	0.890468	0.668979
664	C	0.722492	0.861628	0.66718
665	C	0.696711	0.806993	0.665889
666	C	0.64205	0.781075	0.666404
667	H	0.761743	0.881249	0.666869
668	H	0.622388	0.742106	0.66125
669	H	0.622325	0.880825	0.674396
670	C	0.89101	0.695931	0.667768
671	C	0.862456	0.641836	0.674891
672	C	0.807937	0.613023	0.672487
673	C	0.782018	0.641497	0.668163
674	C	0.807994	0.695846	0.663471
675	C	0.862482	0.721498	0.660595
676	H	0.742613	0.621848	0.668367
677	H	0.882082	0.760879	0.659502
678	H	0.882057	0.622056	0.675928
679	C	0.780487	0.723375	0.996322
680	C	0.797318	0.769377	0.971789
681	C	0.769537	0.796305	0.971007
682	C	0.724293	0.779336	0.997753
683	C	0.708083	0.733901	0.690642
684	H	0.828307	0.781669	0.950862
685	C	0.735258	0.70653	0.688622
686	H	0.723794	0.675835	0.709764
687	N	0.784288	0.83694	0.939702
688	N	0.66819	0.718363	0.722833
689	O	0.779571	0.821282	0.900038
690	O	0.685464	0.724918	0.762059
691	O	0.829894	0.872736	0.945648
692	O	0.634284	0.671752	0.718218
693	C	0.780402	0.557979	0.00623
694	C	0.734731	0.529659	0.981129
695	C	0.707464	0.975061	0.978544
696	C	0.724276	0.945727	0.003895
697	C	0.770067	0.973962	0.696685
698	H	0.722764	0.548953	0.960586
699	C	0.797676	0.528676	0.696635
700	H	0.829033	0.54726	0.717188
701	N	0.666693	0.950898	0.947113
702	N	0.785634	0.948075	0.727253
703	O	0.682811	0.961813	0.907569
704	O	0.781793	0.958821	0.767192
705	O	0.632951	0.963594	0.953092
706	O	0.831127	0.958004	0.720311
707	C	0.946065	0.723418	0.00108
708	C	0.974938	0.768282	0.975083
709	C	0.529567	0.795742	0.974184
710	C	0.558194	0.779425	0.001074
711	C	0.529543	0.734453	0.694595
712	H	0.956076	0.77973	0.953514
713	C	0.974911	0.707363	0.693715
714	H	0.95603	0.677034	0.715265
715	N	0.554918	0.836099	0.942578
716	N	0.554859	0.719234	0.726043
717	O	0.545468	0.819293	0.903168
718	O	0.545331	0.726232	0.765537
719	O	0.541737	0.869694	0.946705
720	O	0.54176	0.672515	0.721552
