data_C153H90N54_2018-02-15_10:45:24
#******************************************
#
# CIF file created by Zeo++
# Zeo++ is an open source package to
# analyze microporous materials
#
#*******************************************

_cell_length_a		28.9783   
_cell_length_b		28.9783   
_cell_length_c		29.9654   
_cell_angle_alpha		90   
_cell_angle_beta		90   
_cell_angle_gamma		120   

_symmetry_space_group_name_H-M		'P1'
_symmetry_Int_Tables_number		1
_symmetry_cell_setting		Monoclinic

loop_
_symmetry_equiv_pos_as_xyz
'+x,+y,+z'

loop_
_atom_site_label
_atom_site_type_symbol
_atom_site_fract_x
_atom_site_fract_y
_atom_site_fract_z
1	C	0.279754	0.640873	0.014345
2	N	0.30637	0.613454	0.013997
3	C	0.360578	0.639172	0.014419
4	N	0.387995	0.693208	0.014073
5	C	0.362276	0.721699	0.014448
6	N	0.308242	0.695085	0.014026
7	N	0.227118	0.613486	0.012275
8	N	0.387529	0.774337	0.0124
9	N	0.387966	0.613924	0.01234
10	C	0.721941	0.362136	0.995731
11	N	0.693332	0.387724	0.995995
12	C	0.639293	0.360079	0.995771
13	N	0.613706	0.305881	0.996028
14	C	0.641351	0.27949	0.995768
15	N	0.695547	0.308099	0.995992
16	N	0.774622	0.387741	0.996509
17	N	0.614276	0.22681	0.996569
18	N	0.613692	0.387157	0.996576
19	C	0.406329	0.545037	0.014868
20	C	0.432995	0.536123	0.050739
21	N	0.461283	0.511246	0.042086
22	C	0.466204	0.494116	0.001104
23	C	0.440774	0.502699	0.297484
24	C	0.411045	0.528432	0.304908
25	H	0.391279	0.533553	0.278692
26	C	0.494169	0.466219	0.328645
27	C	0.54295	0.427882	0.027199
28	C	0.545557	0.406118	0.319063
29	C	0.522065	0.415956	0.281631
30	N	0.517453	0.456257	0.030563
31	C	0.496416	0.446296	0.285836
32	C	0.471895	0.455915	0.249099
33	C	0.444405	0.484019	0.254855
34	H	0.473013	0.441729	0.218078
35	H	0.426069	0.489637	0.227904
36	H	0.52286	0.400189	0.251202
37	H	0.558399	0.4211	0.055493
38	C	0.432082	0.550918	0.097907
39	H	0.409332	0.571169	0.102888
40	H	0.472788	0.577492	0.109265
41	H	0.414442	0.515112	0.118566
42	C	0.372381	0.564877	0.020945
43	C	0.566668	0.372844	0.315474
44	H	0.545105	0.337821	0.30034
45	H	0.335329	0.539956	0.03101
46	C	0.45642	0.861582	0.014979
47	C	0.465358	0.89719	0.050834
48	N	0.490241	0.95035	0.042158
49	C	0.507371	0.972373	0.001168
50	C	0.498777	0.938336	0.297564
51	C	0.473042	0.882877	0.305013
52	H	0.46787	0.857968	0.278804
53	C	0.535253	0.028231	0.328681
54	C	0.573557	0.115371	0.027189
55	C	0.595339	0.139712	0.319045
56	C	0.585489	0.106361	0.281628
57	N	0.545215	0.061501	0.03058
58	C	0.555153	0.050375	0.285859
59	C	0.545524	0.016209	0.249139
60	C	0.517432	0.960618	0.254922
61	H	0.559673	0.03149	0.218106
62	H	0.511783	0.936646	0.227979
63	H	0.601226	0.122906	0.251189
64	H	0.580366	0.137622	0.055473
65	C	0.450541	0.88151	0.098004
66	H	0.430275	0.838511	0.103002
67	H	0.423974	0.895659	0.109336
68	H	0.486339	0.899676	0.118672
69	C	0.436558	0.807797	0.021083
70	C	0.628575	0.194101	0.315429
71	H	0.66359	0.20757	0.300277
72	H	0.461467	0.795655	0.031155
73	C	0.139858	0.595069	0.014812
74	C	0.104266	0.568447	0.050684
75	N	0.051098	0.540175	0.04203
76	C	0.029052	0.535254	0.001046
77	C	0.06307	0.560693	0.297431
78	C	0.11853	0.590431	0.304864
79	H	0.143424	0.610139	0.278637
80	C	0.973189	0.50729	0.328582
81	C	0.886067	0.458497	0.027124
82	C	0.861709	0.455927	0.318988
83	C	0.895039	0.479409	0.281557
84	N	0.939936	0.483995	0.030493
85	C	0.951026	0.50505	0.28577
86	C	0.985175	0.529556	0.249033
87	C	0.040771	0.557043	0.254794
88	H	0.969877	0.528472	0.218016
89	H	0.064725	0.57542	0.227854
90	H	0.87848	0.478592	0.251121
91	H	0.86383	0.443032	0.055412
92	C	0.119971	0.569359	0.097852
93	H	0.162972	0.592076	0.102829
94	H	0.105806	0.528652	0.10922
95	H	0.101833	0.587032	0.118506
96	C	0.193641	0.62905	0.020883
97	C	0.807317	0.434752	0.315371
98	H	0.793836	0.456317	0.300269
99	H	0.205757	0.666096	0.030948
100	C	0.279754	0.640873	0.347678
101	N	0.30637	0.613454	0.34733
102	C	0.360578	0.639172	0.347751
103	N	0.387995	0.693208	0.347407
104	C	0.362276	0.721699	0.347781
105	N	0.308242	0.695085	0.34736
106	N	0.227118	0.613486	0.345608
107	N	0.387529	0.774337	0.345732
108	N	0.387966	0.613924	0.345675
109	C	0.721941	0.362136	0.329063
110	N	0.693332	0.387724	0.329329
111	C	0.639293	0.360079	0.329104
112	N	0.613706	0.305881	0.32936
113	C	0.641351	0.27949	0.3291
114	N	0.695547	0.308099	0.329324
115	N	0.774622	0.387741	0.329842
116	N	0.614276	0.22681	0.329902
117	N	0.613692	0.387157	0.329907
118	C	0.406329	0.545037	0.348201
119	C	0.432995	0.536123	0.384073
120	N	0.461283	0.511246	0.37542
121	C	0.466204	0.494116	0.334436
122	C	0.440774	0.502699	0.630817
123	C	0.411045	0.528432	0.638243
124	H	0.391279	0.533553	0.612026
125	C	0.494169	0.466219	0.66198
126	C	0.54295	0.427882	0.360532
127	C	0.545557	0.406118	0.652396
128	C	0.522065	0.415956	0.614966
129	N	0.517453	0.456257	0.363896
130	C	0.496416	0.446296	0.619171
131	C	0.471895	0.455915	0.582432
132	C	0.444405	0.484019	0.588188
133	H	0.473013	0.441729	0.551412
134	H	0.426069	0.489637	0.561237
135	H	0.52286	0.400189	0.584534
136	H	0.558399	0.4211	0.388828
137	C	0.432082	0.550918	0.431241
138	H	0.409332	0.571169	0.43622
139	H	0.472788	0.577492	0.442597
140	H	0.414442	0.515112	0.451901
141	C	0.372381	0.564877	0.354278
142	C	0.566668	0.372844	0.648808
143	H	0.545105	0.337821	0.633674
144	H	0.335329	0.539956	0.364343
145	C	0.45642	0.861582	0.348312
146	C	0.465358	0.89719	0.384166
147	N	0.490241	0.95035	0.375493
148	C	0.507371	0.972373	0.334502
149	C	0.498777	0.938336	0.630897
150	C	0.473042	0.882877	0.638346
151	H	0.46787	0.857968	0.612139
152	C	0.535253	0.028231	0.662013
153	C	0.573557	0.115371	0.360522
154	C	0.595339	0.139712	0.652379
155	C	0.585489	0.106361	0.614962
156	N	0.545215	0.061501	0.363913
157	C	0.555153	0.050375	0.619194
158	C	0.545524	0.016209	0.582472
159	C	0.517432	0.960618	0.588255
160	H	0.559673	0.03149	0.551439
161	H	0.511783	0.936646	0.56131
162	H	0.601226	0.122906	0.584521
163	H	0.580366	0.137622	0.388805
164	C	0.450541	0.88151	0.431337
165	H	0.430275	0.838511	0.436336
166	H	0.423974	0.895659	0.44267
167	H	0.486339	0.899676	0.452004
168	C	0.436558	0.807797	0.354419
169	C	0.628575	0.194101	0.648761
170	H	0.66359	0.20757	0.633611
171	H	0.461467	0.795655	0.364487
172	C	0.139858	0.595069	0.348145
173	C	0.104266	0.568447	0.384016
174	N	0.051098	0.540175	0.375363
175	C	0.029052	0.535254	0.334379
176	C	0.06307	0.560693	0.630764
177	C	0.11853	0.590431	0.638199
178	H	0.143424	0.610139	0.611972
179	C	0.973189	0.50729	0.661916
180	C	0.886067	0.458497	0.360456
181	C	0.861709	0.455927	0.652322
182	C	0.895039	0.479409	0.614892
183	N	0.939936	0.483995	0.363826
184	C	0.951026	0.50505	0.619104
185	C	0.985175	0.529556	0.582365
186	C	0.040771	0.557043	0.588128
187	H	0.969877	0.528472	0.551349
188	H	0.064725	0.57542	0.561187
189	H	0.87848	0.478592	0.584454
190	H	0.86383	0.443032	0.388745
191	C	0.119971	0.569359	0.431187
192	H	0.162972	0.592076	0.436163
193	H	0.105806	0.528652	0.442554
194	H	0.101833	0.587032	0.451841
195	C	0.193641	0.62905	0.354218
196	C	0.807317	0.434752	0.648705
197	H	0.793836	0.456317	0.633604
198	H	0.205757	0.666096	0.36428
199	C	0.279754	0.640873	0.681012
200	N	0.30637	0.613454	0.680665
201	C	0.360578	0.639172	0.681085
202	N	0.387995	0.693208	0.680742
203	C	0.362276	0.721699	0.681115
204	N	0.308242	0.695085	0.680695
205	N	0.227118	0.613486	0.678943
206	N	0.387529	0.774337	0.679066
207	N	0.387966	0.613924	0.679006
208	C	0.721941	0.362136	0.662397
209	N	0.693332	0.387724	0.662661
210	C	0.639293	0.360079	0.662437
211	N	0.613706	0.305881	0.662694
212	C	0.641351	0.27949	0.662434
213	N	0.695547	0.308099	0.662657
214	N	0.774622	0.387741	0.663175
215	N	0.614276	0.22681	0.663235
216	N	0.613692	0.387157	0.663241
217	C	0.406329	0.545037	0.681536
218	C	0.432995	0.536123	0.717407
219	N	0.461283	0.511246	0.708754
220	C	0.466204	0.494116	0.66777
221	C	0.440774	0.502699	0.964152
222	C	0.411045	0.528432	0.971577
223	H	0.391279	0.533553	0.94536
224	C	0.494169	0.466219	0.995311
225	C	0.54295	0.427882	0.693867
226	C	0.545557	0.406118	0.98573
227	C	0.522065	0.415956	0.948297
228	N	0.517453	0.456257	0.697231
229	C	0.496416	0.446296	0.952502
230	C	0.471895	0.455915	0.915766
231	C	0.444405	0.484019	0.921522
232	H	0.473013	0.441729	0.884743
233	H	0.426069	0.489637	0.894571
234	H	0.52286	0.400189	0.917868
235	H	0.558399	0.4211	0.722159
236	C	0.432082	0.550918	0.764575
237	H	0.409332	0.571169	0.769554
238	H	0.472788	0.577492	0.775931
239	H	0.414442	0.515112	0.785232
240	C	0.372381	0.564877	0.687613
241	C	0.566668	0.372844	0.982142
242	H	0.545105	0.337821	0.967008
243	H	0.335329	0.539956	0.697678
244	C	0.45642	0.861582	0.681646
245	C	0.465358	0.89719	0.717501
246	N	0.490241	0.95035	0.708824
247	C	0.507371	0.972373	0.667833
248	C	0.498777	0.938336	0.964232
249	C	0.473042	0.882877	0.97168
250	H	0.46787	0.857968	0.94547
251	C	0.535253	0.028231	0.995348
252	C	0.573557	0.115371	0.693857
253	C	0.595339	0.139712	0.985713
254	C	0.585489	0.106361	0.948293
255	N	0.545215	0.061501	0.697247
256	C	0.555153	0.050375	0.952525
257	C	0.545524	0.016209	0.915806
258	C	0.517432	0.960618	0.921589
259	H	0.559673	0.03149	0.884773
260	H	0.511783	0.936646	0.894645
261	H	0.601226	0.122906	0.917855
262	H	0.580366	0.137622	0.722139
263	C	0.450541	0.88151	0.764672
264	H	0.430275	0.838511	0.769671
265	H	0.423974	0.895659	0.776005
266	H	0.486339	0.899676	0.785339
267	C	0.436558	0.807797	0.68775
268	C	0.628575	0.194101	0.982096
269	H	0.66359	0.20757	0.966945
270	H	0.461467	0.795655	0.697821
271	C	0.139858	0.595069	0.681479
272	C	0.104266	0.568447	0.71735
273	N	0.051098	0.540175	0.708697
274	C	0.029052	0.535254	0.667713
275	C	0.06307	0.560693	0.964098
276	C	0.11853	0.590431	0.97153
277	H	0.143424	0.610139	0.945303
278	C	0.973189	0.50729	0.995247
279	C	0.886067	0.458497	0.69379
280	C	0.861709	0.455927	0.985656
281	C	0.895039	0.479409	0.948223
282	N	0.939936	0.483995	0.69716
283	C	0.951026	0.50505	0.952438
284	C	0.985175	0.529556	0.915699
285	C	0.040771	0.557043	0.921462
286	H	0.969877	0.528472	0.884683
287	H	0.064725	0.57542	0.894521
288	H	0.87848	0.478592	0.917788
289	H	0.86383	0.443032	0.722079
290	C	0.119971	0.569359	0.764518
291	H	0.162972	0.592076	0.769494
292	H	0.105806	0.528652	0.775888
293	H	0.101833	0.587032	0.785172
294	C	0.193641	0.62905	0.687549
295	C	0.807317	0.434752	0.982039
296	H	0.793836	0.456317	0.966935
297	H	0.205757	0.666096	0.697614
