data_C360H288N72_2018-02-15_10:38:22
#******************************************
#
# CIF file created by Zeo++
# Zeo++ is an open source package to
# analyze microporous materials
#
#*******************************************

_cell_length_a		29.6084   
_cell_length_b		29.6084   
_cell_length_c		30.0058   
_cell_angle_alpha		90   
_cell_angle_beta		90   
_cell_angle_gamma		120   

_symmetry_space_group_name_H-M		'P1'
_symmetry_Int_Tables_number		1
_symmetry_cell_setting		Monoclinic

loop_
_symmetry_equiv_pos_as_xyz
'+x,+y,+z'

loop_
_atom_site_label
_atom_site_type_symbol
_atom_site_fract_x
_atom_site_fract_y
_atom_site_fract_z
1	C	0.195384	0.387545	0.001763
2	N	0.142243	0.360606	0.001679
3	C	0.112211	0.30779	0.001761
4	N	0.13915	0.281588	0.001679
5	C	0.191966	0.304372	0.001764
6	N	0.218168	0.357514	0.001681
7	C	0.304322	0.11226	0.999636
8	N	0.357464	0.139199	0.999716
9	C	0.387496	0.192014	0.999632
10	N	0.360557	0.218217	0.999716
11	C	0.307742	0.195434	0.999632
12	N	0.281539	0.142292	0.999716
13	C	0.218835	0.275585	0.00167
14	C	0.19513	0.220716	0.009054
15	C	0.226333	0.196884	0.007698
16	C	0.280873	0.224221	0.333058
17	C	0.304577	0.27909	0.325675
18	H	0.208309	0.157849	0.014045
19	C	0.273374	0.302921	0.327025
20	H	0.291397	0.341957	0.320686
21	C	0.360929	0.313395	0.314882
22	H	0.371599	0.297871	0.286324
23	H	0.384274	0.315725	0.34376
24	H	0.371285	0.353316	0.306395
25	C	0.138779	0.186412	0.019849
26	H	0.128111	0.201937	0.048407
27	H	0.128423	0.14649	0.028338
28	H	0.115432	0.184079	0.990974
29	C	0.224171	0.443202	0.001671
30	C	0.27904	0.474366	0.009057
31	C	0.302872	0.029401	0.007702
32	C	0.275535	0.056603	0.33306
33	C	0.220666	0.025439	0.325675
34	H	0.341906	0.050411	0.01405
35	C	0.196835	0.470404	0.327024
36	H	0.157799	0.449391	0.320683
37	C	0.186363	0.047488	0.314882
38	H	0.201887	0.073681	0.286322
39	H	0.184031	0.068499	0.343753
40	H	0.146439	0.017919	0.306392
41	C	0.313342	0.452316	0.019853
42	H	0.297816	0.426124	0.048413
43	H	0.353266	0.481885	0.028345
44	H	0.315677	0.431307	0.990981
45	C	0.056554	0.280921	0.001668
46	C	0.02539	0.304626	0.009052
47	C	0.470355	0.273423	0.007697
48	C	0.443153	0.218883	0.333058
49	C	0.474317	0.195179	0.325676
50	H	0.449344	0.291447	0.014044
51	C	0.029352	0.226382	0.327025
52	H	0.050365	0.208358	0.320685
53	C	0.452267	0.138826	0.314885
54	H	0.426076	0.128155	0.286326
55	H	0.431258	0.115484	0.34376
56	H	0.481839	0.128469	0.306397
57	C	0.04744	0.360979	0.019844
58	H	0.073631	0.371647	0.048404
59	H	0.01787	0.371334	0.028334
60	H	0.06845	0.384321	0.990974
61	C	0.195384	0.387545	0.335098
62	N	0.142243	0.360606	0.335012
63	C	0.112211	0.30779	0.335095
64	N	0.13915	0.281588	0.335012
65	C	0.191966	0.304372	0.335098
66	N	0.218168	0.357514	0.335015
67	C	0.304322	0.11226	0.332967
68	N	0.357464	0.139199	0.33305
69	C	0.387496	0.192014	0.332965
70	N	0.360557	0.218217	0.333048
71	C	0.307742	0.195434	0.332964
72	N	0.281539	0.142292	0.333049
73	C	0.218835	0.275585	0.335005
74	C	0.19513	0.220716	0.342387
75	C	0.226333	0.196884	0.34103
76	C	0.280873	0.224221	0.666391
77	C	0.304577	0.27909	0.659009
78	H	0.208309	0.157849	0.347379
79	C	0.273374	0.302921	0.660358
80	H	0.291397	0.341957	0.65402
81	C	0.360929	0.313395	0.648217
82	H	0.371599	0.297871	0.619656
83	H	0.384274	0.315725	0.677092
84	H	0.371285	0.353316	0.639729
85	C	0.138779	0.186412	0.353181
86	H	0.128111	0.201937	0.381739
87	H	0.128423	0.14649	0.36167
88	H	0.115432	0.184079	0.324307
89	C	0.224171	0.443202	0.335005
90	C	0.27904	0.474366	0.34239
91	C	0.302872	0.029401	0.341034
92	C	0.275535	0.056603	0.666394
93	C	0.220666	0.025439	0.659009
94	H	0.341906	0.050411	0.347383
95	C	0.196835	0.470404	0.660358
96	H	0.157799	0.449391	0.654016
97	C	0.186363	0.047488	0.648217
98	H	0.201887	0.073681	0.619656
99	H	0.184031	0.068499	0.677088
100	H	0.146439	0.017919	0.639726
101	C	0.313342	0.452316	0.353185
102	H	0.297816	0.426124	0.381746
103	H	0.353266	0.481885	0.36168
104	H	0.315677	0.431307	0.324315
105	C	0.056554	0.280921	0.335002
106	C	0.02539	0.304626	0.342387
107	C	0.470355	0.273423	0.34103
108	C	0.443153	0.218883	0.666391
109	C	0.474317	0.195179	0.659009
110	H	0.449344	0.291447	0.347379
111	C	0.029352	0.226382	0.660358
112	H	0.050365	0.208358	0.65402
113	C	0.452267	0.138826	0.648221
114	H	0.426076	0.128155	0.61966
115	H	0.431258	0.115484	0.677092
116	H	0.481839	0.128469	0.639729
117	C	0.04744	0.360979	0.353178
118	H	0.073631	0.371647	0.381739
119	H	0.01787	0.371334	0.361666
120	H	0.06845	0.384321	0.324306
121	C	0.195384	0.387545	0.66843
122	N	0.142243	0.360606	0.668347
123	C	0.112211	0.30779	0.66843
124	N	0.13915	0.281588	0.668347
125	C	0.191966	0.304372	0.66843
126	N	0.218168	0.357514	0.668347
127	C	0.304322	0.11226	0.666301
128	N	0.357464	0.139199	0.666384
129	C	0.387496	0.192014	0.666301
130	N	0.360557	0.218217	0.666381
131	C	0.307742	0.195434	0.666297
132	N	0.281539	0.142292	0.666384
133	C	0.218835	0.275585	0.668337
134	C	0.19513	0.220716	0.675722
135	C	0.226333	0.196884	0.674366
136	C	0.280873	0.224221	0.999726
137	C	0.304577	0.27909	0.992344
138	H	0.208309	0.157849	0.680711
139	C	0.273374	0.302921	0.993694
140	H	0.291397	0.341957	0.987352
141	C	0.360929	0.313395	0.981549
142	H	0.371599	0.297871	0.952992
143	H	0.384274	0.315725	0.010425
144	H	0.371285	0.353316	0.973064
145	C	0.138779	0.186412	0.686517
146	H	0.128111	0.201937	0.715074
147	H	0.128423	0.14649	0.695005
148	H	0.115432	0.184079	0.657642
149	C	0.224171	0.443202	0.668337
150	C	0.27904	0.474366	0.675725
151	C	0.302872	0.029401	0.674369
152	C	0.275535	0.056603	0.999726
153	C	0.220666	0.025439	0.992344
154	H	0.341906	0.050411	0.680718
155	C	0.196835	0.470404	0.99369
156	H	0.157799	0.449391	0.987352
157	C	0.186363	0.047488	0.981549
158	H	0.201887	0.073681	0.952988
159	H	0.184031	0.068499	0.010421
160	H	0.146439	0.017919	0.973061
161	C	0.313342	0.452316	0.68652
162	H	0.297816	0.426124	0.715081
163	H	0.353266	0.481885	0.695012
164	H	0.315677	0.431307	0.657649
165	C	0.056554	0.280921	0.668337
166	C	0.02539	0.304626	0.675719
167	C	0.470355	0.273423	0.674366
168	C	0.443153	0.218883	0.999726
169	C	0.474317	0.195179	0.992344
170	H	0.449344	0.291447	0.680711
171	C	0.029352	0.226382	0.993694
172	H	0.050365	0.208358	0.987352
173	C	0.452267	0.138826	0.981553
174	H	0.426076	0.128155	0.952995
175	H	0.431258	0.115484	0.010425
176	H	0.481839	0.128469	0.973064
177	C	0.04744	0.360979	0.686513
178	H	0.073631	0.371647	0.715071
179	H	0.01787	0.371334	0.695002
180	H	0.06845	0.384321	0.657639
181	C	0.195385	0.887546	0.001763
182	N	0.142243	0.860605	0.001679
183	C	0.11221	0.807789	0.001761
184	N	0.139151	0.781589	0.001679
185	C	0.191966	0.804373	0.001764
186	N	0.218168	0.857513	0.001681
187	C	0.304322	0.612259	0.999636
188	N	0.357465	0.6392	0.999716
189	C	0.387497	0.692016	0.999632
190	N	0.360557	0.718216	0.999716
191	C	0.307741	0.695432	0.999632
192	N	0.281539	0.642292	0.999716
193	C	0.218835	0.775583	0.00167
194	C	0.19513	0.720715	0.009054
195	C	0.226333	0.696883	0.007698
196	C	0.280873	0.724222	0.333058
197	C	0.304577	0.779089	0.325675
198	H	0.208309	0.657849	0.014045
199	C	0.273374	0.802922	0.327025
200	H	0.291397	0.841956	0.320686
201	C	0.360931	0.813397	0.314882
202	H	0.371599	0.797871	0.286324
203	H	0.384275	0.815725	0.34376
204	H	0.371285	0.853316	0.306395
205	C	0.138779	0.686412	0.019849
206	H	0.128111	0.701937	0.048407
207	H	0.128425	0.646492	0.028338
208	H	0.115433	0.68408	0.990974
209	C	0.224172	0.943202	0.001671
210	C	0.27904	0.974366	0.009057
211	C	0.302872	0.529401	0.007702
212	C	0.275535	0.556603	0.33306
213	C	0.220667	0.525439	0.325675
214	H	0.341905	0.55041	0.01405
215	C	0.196835	0.970403	0.327024
216	H	0.157799	0.949391	0.320683
217	C	0.186364	0.547489	0.314882
218	H	0.201888	0.573681	0.286322
219	H	0.18403	0.568498	0.343753
220	H	0.146439	0.51792	0.306392
221	C	0.313342	0.952316	0.019853
222	H	0.297816	0.926124	0.048413
223	H	0.353266	0.981885	0.028345
224	H	0.315678	0.931307	0.990981
225	C	0.056555	0.780922	0.001668
226	C	0.02539	0.804626	0.009052
227	C	0.470356	0.773423	0.007697
228	C	0.443153	0.718883	0.333058
229	C	0.474318	0.695179	0.325676
230	H	0.449344	0.791448	0.014044
231	C	0.029352	0.726382	0.327025
232	H	0.050365	0.708357	0.320685
233	C	0.452267	0.638825	0.314885
234	H	0.426075	0.628155	0.286326
235	H	0.431257	0.615484	0.34376
236	H	0.481839	0.628471	0.306397
237	C	0.04744	0.86098	0.019844
238	H	0.073632	0.871646	0.048404
239	H	0.01787	0.871334	0.028334
240	H	0.068449	0.884321	0.990974
241	C	0.195385	0.887546	0.335098
242	N	0.142243	0.860605	0.335012
243	C	0.11221	0.807789	0.335095
244	N	0.139151	0.781589	0.335012
245	C	0.191966	0.804373	0.335098
246	N	0.218168	0.857513	0.335015
247	C	0.304322	0.612259	0.332967
248	N	0.357465	0.6392	0.33305
249	C	0.387497	0.692016	0.332965
250	N	0.360557	0.718216	0.333048
251	C	0.307741	0.695432	0.332964
252	N	0.281539	0.642292	0.333049
253	C	0.218835	0.775583	0.335005
254	C	0.19513	0.720715	0.342387
255	C	0.226333	0.696883	0.34103
256	C	0.280873	0.724222	0.666391
257	C	0.304577	0.779089	0.659009
258	H	0.208309	0.657849	0.347379
259	C	0.273374	0.802922	0.660358
260	H	0.291397	0.841956	0.65402
261	C	0.360931	0.813397	0.648217
262	H	0.371599	0.797871	0.619656
263	H	0.384275	0.815725	0.677092
264	H	0.371285	0.853316	0.639729
265	C	0.138779	0.686412	0.353181
266	H	0.128111	0.701937	0.381739
267	H	0.128425	0.646492	0.36167
268	H	0.115433	0.68408	0.324307
269	C	0.224172	0.943202	0.335005
270	C	0.27904	0.974366	0.34239
271	C	0.302872	0.529401	0.341034
272	C	0.275535	0.556603	0.666394
273	C	0.220667	0.525439	0.659009
274	H	0.341905	0.55041	0.347383
275	C	0.196835	0.970403	0.660358
276	H	0.157799	0.949391	0.654016
277	C	0.186364	0.547489	0.648217
278	H	0.201888	0.573681	0.619656
279	H	0.18403	0.568498	0.677088
280	H	0.146439	0.51792	0.639726
281	C	0.313342	0.952316	0.353185
282	H	0.297816	0.926124	0.381746
283	H	0.353266	0.981885	0.36168
284	H	0.315678	0.931307	0.324315
285	C	0.056555	0.780922	0.335002
286	C	0.02539	0.804626	0.342387
287	C	0.470356	0.773423	0.34103
288	C	0.443153	0.718883	0.666391
289	C	0.474318	0.695179	0.659009
290	H	0.449344	0.791448	0.347379
291	C	0.029352	0.726382	0.660358
292	H	0.050365	0.708357	0.65402
293	C	0.452267	0.638825	0.648221
294	H	0.426075	0.628155	0.61966
295	H	0.431257	0.615484	0.677092
296	H	0.481839	0.628471	0.639729
297	C	0.04744	0.86098	0.353178
298	H	0.073632	0.871646	0.381739
299	H	0.01787	0.871334	0.361666
300	H	0.068449	0.884321	0.324306
301	C	0.195385	0.887546	0.66843
302	N	0.142243	0.860605	0.668347
303	C	0.11221	0.807789	0.66843
304	N	0.139151	0.781589	0.668347
305	C	0.191966	0.804373	0.66843
306	N	0.218168	0.857513	0.668347
307	C	0.304322	0.612259	0.666301
308	N	0.357465	0.6392	0.666384
309	C	0.387497	0.692016	0.666301
310	N	0.360557	0.718216	0.666381
311	C	0.307741	0.695432	0.666297
312	N	0.281539	0.642292	0.666384
313	C	0.218835	0.775583	0.668337
314	C	0.19513	0.720715	0.675722
315	C	0.226333	0.696883	0.674366
316	C	0.280873	0.724222	0.999726
317	C	0.304577	0.779089	0.992344
318	H	0.208309	0.657849	0.680711
319	C	0.273374	0.802922	0.993694
320	H	0.291397	0.841956	0.987352
321	C	0.360931	0.813397	0.981549
322	H	0.371599	0.797871	0.952992
323	H	0.384275	0.815725	0.010425
324	H	0.371285	0.853316	0.973064
325	C	0.138779	0.686412	0.686517
326	H	0.128111	0.701937	0.715074
327	H	0.128425	0.646492	0.695005
328	H	0.115433	0.68408	0.657642
329	C	0.224172	0.943202	0.668337
330	C	0.27904	0.974366	0.675725
331	C	0.302872	0.529401	0.674369
332	C	0.275535	0.556603	0.999726
333	C	0.220667	0.525439	0.992344
334	H	0.341905	0.55041	0.680718
335	C	0.196835	0.970403	0.99369
336	H	0.157799	0.949391	0.987352
337	C	0.186364	0.547489	0.981549
338	H	0.201888	0.573681	0.952988
339	H	0.18403	0.568498	0.010421
340	H	0.146439	0.51792	0.973061
341	C	0.313342	0.952316	0.68652
342	H	0.297816	0.926124	0.715081
343	H	0.353266	0.981885	0.695012
344	H	0.315678	0.931307	0.657649
345	C	0.056555	0.780922	0.668337
346	C	0.02539	0.804626	0.675719
347	C	0.470356	0.773423	0.674366
348	C	0.443153	0.718883	0.999726
349	C	0.474318	0.695179	0.992344
350	H	0.449344	0.791448	0.680711
351	C	0.029352	0.726382	0.993694
352	H	0.050365	0.708357	0.987352
353	C	0.452267	0.638825	0.981553
354	H	0.426075	0.628155	0.952995
355	H	0.431257	0.615484	0.010425
356	H	0.481839	0.628471	0.973064
357	C	0.04744	0.86098	0.686513
358	H	0.073632	0.871646	0.715071
359	H	0.01787	0.871334	0.695002
360	H	0.068449	0.884321	0.657639
361	C	0.695384	0.387545	0.001763
362	N	0.642243	0.360606	0.001679
363	C	0.612211	0.30779	0.001761
364	N	0.639149	0.281588	0.001679
365	C	0.691965	0.304372	0.001764
366	N	0.718168	0.357514	0.001681
367	C	0.804323	0.11226	0.999636
368	N	0.857464	0.139199	0.999716
369	C	0.887495	0.192014	0.999632
370	N	0.860557	0.218217	0.999716
371	C	0.807742	0.195434	0.999632
372	N	0.781539	0.142292	0.999716
373	C	0.718833	0.275585	0.00167
374	C	0.695131	0.220716	0.009054
375	C	0.726335	0.196884	0.007698
376	C	0.780874	0.224221	0.333058
377	C	0.804576	0.27909	0.325675
378	H	0.70831	0.157849	0.014045
379	C	0.773372	0.302921	0.327025
380	H	0.791397	0.341957	0.320686
381	C	0.86093	0.313395	0.314882
382	H	0.871599	0.297871	0.286324
383	H	0.884275	0.315725	0.34376
384	H	0.871285	0.353316	0.306395
385	C	0.638777	0.186412	0.019849
386	H	0.628109	0.201937	0.048407
387	H	0.628422	0.14649	0.028338
388	H	0.615432	0.184079	0.990974
389	C	0.724171	0.443202	0.001671
390	C	0.779039	0.474366	0.009057
391	C	0.802872	0.029401	0.007702
392	C	0.775535	0.056603	0.33306
393	C	0.720667	0.025439	0.325675
394	H	0.841906	0.050411	0.01405
395	C	0.696834	0.470404	0.327024
396	H	0.657799	0.449391	0.320683
397	C	0.686363	0.047488	0.314882
398	H	0.701888	0.073681	0.286322
399	H	0.684031	0.068499	0.343753
400	H	0.646437	0.017919	0.306392
401	C	0.813343	0.452316	0.019853
402	H	0.797815	0.426124	0.048413
403	H	0.853265	0.481885	0.028345
404	H	0.815676	0.431307	0.990981
405	C	0.556555	0.280921	0.001668
406	C	0.52539	0.304626	0.009052
407	C	0.970357	0.273423	0.007697
408	C	0.943151	0.218883	0.333058
409	C	0.974317	0.195179	0.325676
410	H	0.949344	0.291447	0.014044
411	C	0.52935	0.226382	0.327025
412	H	0.550367	0.208358	0.320685
413	C	0.952267	0.138826	0.314885
414	H	0.926076	0.128155	0.286326
415	H	0.931258	0.115484	0.34376
416	H	0.981836	0.128469	0.306397
417	C	0.547439	0.360979	0.019844
418	H	0.573629	0.371647	0.048404
419	H	0.517869	0.371334	0.028334
420	H	0.568449	0.384321	0.990974
421	C	0.695384	0.387545	0.335098
422	N	0.642243	0.360606	0.335012
423	C	0.612211	0.30779	0.335095
424	N	0.639149	0.281588	0.335012
425	C	0.691965	0.304372	0.335098
426	N	0.718168	0.357514	0.335015
427	C	0.804323	0.11226	0.332967
428	N	0.857464	0.139199	0.33305
429	C	0.887495	0.192014	0.332965
430	N	0.860557	0.218217	0.333048
431	C	0.807742	0.195434	0.332964
432	N	0.781539	0.142292	0.333049
433	C	0.718833	0.275585	0.335005
434	C	0.695131	0.220716	0.342387
435	C	0.726335	0.196884	0.34103
436	C	0.780874	0.224221	0.666391
437	C	0.804576	0.27909	0.659009
438	H	0.70831	0.157849	0.347379
439	C	0.773372	0.302921	0.660358
440	H	0.791397	0.341957	0.65402
441	C	0.86093	0.313395	0.648217
442	H	0.871599	0.297871	0.619656
443	H	0.884275	0.315725	0.677092
444	H	0.871285	0.353316	0.639729
445	C	0.638777	0.186412	0.353181
446	H	0.628109	0.201937	0.381739
447	H	0.628422	0.14649	0.36167
448	H	0.615432	0.184079	0.324307
449	C	0.724171	0.443202	0.335005
450	C	0.779039	0.474366	0.34239
451	C	0.802872	0.029401	0.341034
452	C	0.775535	0.056603	0.666394
453	C	0.720667	0.025439	0.659009
454	H	0.841906	0.050411	0.347383
455	C	0.696834	0.470404	0.660358
456	H	0.657799	0.449391	0.654016
457	C	0.686363	0.047488	0.648217
458	H	0.701888	0.073681	0.619656
459	H	0.684031	0.068499	0.677088
460	H	0.646437	0.017919	0.639726
461	C	0.813343	0.452316	0.353185
462	H	0.797815	0.426124	0.381746
463	H	0.853265	0.481885	0.36168
464	H	0.815676	0.431307	0.324315
465	C	0.556555	0.280921	0.335002
466	C	0.52539	0.304626	0.342387
467	C	0.970357	0.273423	0.34103
468	C	0.943151	0.218883	0.666391
469	C	0.974317	0.195179	0.659009
470	H	0.949344	0.291447	0.347379
471	C	0.52935	0.226382	0.660358
472	H	0.550367	0.208358	0.65402
473	C	0.952267	0.138826	0.648221
474	H	0.926076	0.128155	0.61966
475	H	0.931258	0.115484	0.677092
476	H	0.981836	0.128469	0.639729
477	C	0.547439	0.360979	0.353178
478	H	0.573629	0.371647	0.381739
479	H	0.517869	0.371334	0.361666
480	H	0.568449	0.384321	0.324306
481	C	0.695384	0.387545	0.66843
482	N	0.642243	0.360606	0.668347
483	C	0.612211	0.30779	0.66843
484	N	0.639149	0.281588	0.668347
485	C	0.691965	0.304372	0.66843
486	N	0.718168	0.357514	0.668347
487	C	0.804323	0.11226	0.666301
488	N	0.857464	0.139199	0.666384
489	C	0.887495	0.192014	0.666301
490	N	0.860557	0.218217	0.666381
491	C	0.807742	0.195434	0.666297
492	N	0.781539	0.142292	0.666384
493	C	0.718833	0.275585	0.668337
494	C	0.695131	0.220716	0.675722
495	C	0.726335	0.196884	0.674366
496	C	0.780874	0.224221	0.999726
497	C	0.804576	0.27909	0.992344
498	H	0.70831	0.157849	0.680711
499	C	0.773372	0.302921	0.993694
500	H	0.791397	0.341957	0.987352
501	C	0.86093	0.313395	0.981549
502	H	0.871599	0.297871	0.952992
503	H	0.884275	0.315725	0.010425
504	H	0.871285	0.353316	0.973064
505	C	0.638777	0.186412	0.686517
506	H	0.628109	0.201937	0.715074
507	H	0.628422	0.14649	0.695005
508	H	0.615432	0.184079	0.657642
509	C	0.724171	0.443202	0.668337
510	C	0.779039	0.474366	0.675725
511	C	0.802872	0.029401	0.674369
512	C	0.775535	0.056603	0.999726
513	C	0.720667	0.025439	0.992344
514	H	0.841906	0.050411	0.680718
515	C	0.696834	0.470404	0.99369
516	H	0.657799	0.449391	0.987352
517	C	0.686363	0.047488	0.981549
518	H	0.701888	0.073681	0.952988
519	H	0.684031	0.068499	0.010421
520	H	0.646437	0.017919	0.973061
521	C	0.813343	0.452316	0.68652
522	H	0.797815	0.426124	0.715081
523	H	0.853265	0.481885	0.695012
524	H	0.815676	0.431307	0.657649
525	C	0.556555	0.280921	0.668337
526	C	0.52539	0.304626	0.675719
527	C	0.970357	0.273423	0.674366
528	C	0.943151	0.218883	0.999726
529	C	0.974317	0.195179	0.992344
530	H	0.949344	0.291447	0.680711
531	C	0.52935	0.226382	0.993694
532	H	0.550367	0.208358	0.987352
533	C	0.952267	0.138826	0.981553
534	H	0.926076	0.128155	0.952995
535	H	0.931258	0.115484	0.010425
536	H	0.981836	0.128469	0.973064
537	C	0.547439	0.360979	0.686513
538	H	0.573629	0.371647	0.715071
539	H	0.517869	0.371334	0.695002
540	H	0.568449	0.384321	0.657639
541	C	0.695385	0.887546	0.001763
542	N	0.642242	0.860605	0.001679
543	C	0.61221	0.807789	0.001761
544	N	0.639151	0.781589	0.001679
545	C	0.691966	0.804373	0.001764
546	N	0.718167	0.857513	0.001681
547	C	0.804323	0.612259	0.999636
548	N	0.857464	0.6392	0.999716
549	C	0.887496	0.692016	0.999632
550	N	0.860557	0.718216	0.999716
551	C	0.807741	0.695432	0.999632
552	N	0.781539	0.642292	0.999716
553	C	0.718835	0.775583	0.00167
554	C	0.69513	0.720715	0.009054
555	C	0.726334	0.696883	0.007698
556	C	0.780874	0.724222	0.333058
557	C	0.804576	0.779089	0.325675
558	H	0.70831	0.657849	0.014045
559	C	0.773376	0.802922	0.327025
560	H	0.791397	0.841956	0.320686
561	C	0.860931	0.813397	0.314882
562	H	0.871599	0.797871	0.286324
563	H	0.884275	0.815725	0.34376
564	H	0.871285	0.853316	0.306395
565	C	0.638779	0.686412	0.019849
566	H	0.628111	0.701937	0.048407
567	H	0.628424	0.646492	0.028338
568	H	0.615432	0.68408	0.990974
569	C	0.724171	0.943202	0.001671
570	C	0.77904	0.974366	0.009057
571	C	0.802872	0.529401	0.007702
572	C	0.775536	0.556603	0.33306
573	C	0.720667	0.525439	0.325675
574	H	0.841906	0.55041	0.01405
575	C	0.696835	0.970403	0.327024
576	H	0.657799	0.949391	0.320683
577	C	0.686364	0.547489	0.314882
578	H	0.701888	0.573681	0.286322
579	H	0.684031	0.568498	0.343753
580	H	0.646438	0.51792	0.306392
581	C	0.813342	0.952316	0.019853
582	H	0.797816	0.926124	0.048413
583	H	0.853265	0.981885	0.028345
584	H	0.815676	0.931307	0.990981
585	C	0.556555	0.780922	0.001668
586	C	0.52539	0.804626	0.009052
587	C	0.970357	0.773423	0.007697
588	C	0.943151	0.718883	0.333058
589	C	0.974317	0.695179	0.325676
590	H	0.949344	0.791448	0.014044
591	C	0.529352	0.726382	0.327025
592	H	0.550365	0.708357	0.320685
593	C	0.952267	0.638825	0.314885
594	H	0.926076	0.628155	0.286326
595	H	0.931258	0.615484	0.34376
596	H	0.981837	0.628471	0.306397
597	C	0.54744	0.86098	0.019844
598	H	0.57363	0.871646	0.048404
599	H	0.517869	0.871334	0.028334
600	H	0.56845	0.884321	0.990974
601	C	0.695385	0.887546	0.335098
602	N	0.642242	0.860605	0.335012
603	C	0.61221	0.807789	0.335095
604	N	0.639151	0.781589	0.335012
605	C	0.691966	0.804373	0.335098
606	N	0.718167	0.857513	0.335015
607	C	0.804323	0.612259	0.332967
608	N	0.857464	0.6392	0.33305
609	C	0.887496	0.692016	0.332965
610	N	0.860557	0.718216	0.333048
611	C	0.807741	0.695432	0.332964
612	N	0.781539	0.642292	0.333049
613	C	0.718835	0.775583	0.335005
614	C	0.69513	0.720715	0.342387
615	C	0.726334	0.696883	0.34103
616	C	0.780874	0.724222	0.666391
617	C	0.804576	0.779089	0.659009
618	H	0.70831	0.657849	0.347379
619	C	0.773376	0.802922	0.660358
620	H	0.791397	0.841956	0.65402
621	C	0.860931	0.813397	0.648217
622	H	0.871599	0.797871	0.619656
623	H	0.884275	0.815725	0.677092
624	H	0.871285	0.853316	0.639729
625	C	0.638779	0.686412	0.353181
626	H	0.628111	0.701937	0.381739
627	H	0.628424	0.646492	0.36167
628	H	0.615432	0.68408	0.324307
629	C	0.724171	0.943202	0.335005
630	C	0.77904	0.974366	0.34239
631	C	0.802872	0.529401	0.341034
632	C	0.775536	0.556603	0.666394
633	C	0.720667	0.525439	0.659009
634	H	0.841906	0.55041	0.347383
635	C	0.696835	0.970403	0.660358
636	H	0.657799	0.949391	0.654016
637	C	0.686364	0.547489	0.648217
638	H	0.701888	0.573681	0.619656
639	H	0.684031	0.568498	0.677088
640	H	0.646438	0.51792	0.639726
641	C	0.813342	0.952316	0.353185
642	H	0.797816	0.926124	0.381746
643	H	0.853265	0.981885	0.36168
644	H	0.815676	0.931307	0.324315
645	C	0.556555	0.780922	0.335002
646	C	0.52539	0.804626	0.342387
647	C	0.970357	0.773423	0.34103
648	C	0.943151	0.718883	0.666391
649	C	0.974317	0.695179	0.659009
650	H	0.949344	0.791448	0.347379
651	C	0.529352	0.726382	0.660358
652	H	0.550365	0.708357	0.65402
653	C	0.952267	0.638825	0.648221
654	H	0.926076	0.628155	0.61966
655	H	0.931258	0.615484	0.677092
656	H	0.981837	0.628471	0.639729
657	C	0.54744	0.86098	0.353178
658	H	0.57363	0.871646	0.381739
659	H	0.517869	0.871334	0.361666
660	H	0.56845	0.884321	0.324306
661	C	0.695385	0.887546	0.66843
662	N	0.642242	0.860605	0.668347
663	C	0.61221	0.807789	0.66843
664	N	0.639151	0.781589	0.668347
665	C	0.691966	0.804373	0.66843
666	N	0.718167	0.857513	0.668347
667	C	0.804323	0.612259	0.666301
668	N	0.857464	0.6392	0.666384
669	C	0.887496	0.692016	0.666301
670	N	0.860557	0.718216	0.666381
671	C	0.807741	0.695432	0.666297
672	N	0.781539	0.642292	0.666384
673	C	0.718835	0.775583	0.668337
674	C	0.69513	0.720715	0.675722
675	C	0.726334	0.696883	0.674366
676	C	0.780874	0.724222	0.999726
677	C	0.804576	0.779089	0.992344
678	H	0.70831	0.657849	0.680711
679	C	0.773376	0.802922	0.993694
680	H	0.791397	0.841956	0.987352
681	C	0.860931	0.813397	0.981549
682	H	0.871599	0.797871	0.952992
683	H	0.884275	0.815725	0.010425
684	H	0.871285	0.853316	0.973064
685	C	0.638779	0.686412	0.686517
686	H	0.628111	0.701937	0.715074
687	H	0.628424	0.646492	0.695005
688	H	0.615432	0.68408	0.657642
689	C	0.724171	0.943202	0.668337
690	C	0.77904	0.974366	0.675725
691	C	0.802872	0.529401	0.674369
692	C	0.775536	0.556603	0.999726
693	C	0.720667	0.525439	0.992344
694	H	0.841906	0.55041	0.680718
695	C	0.696835	0.970403	0.99369
696	H	0.657799	0.949391	0.987352
697	C	0.686364	0.547489	0.981549
698	H	0.701888	0.573681	0.952988
699	H	0.684031	0.568498	0.010421
700	H	0.646438	0.51792	0.973061
701	C	0.813342	0.952316	0.68652
702	H	0.797816	0.926124	0.715081
703	H	0.853265	0.981885	0.695012
704	H	0.815676	0.931307	0.657649
705	C	0.556555	0.780922	0.668337
706	C	0.52539	0.804626	0.675719
707	C	0.970357	0.773423	0.674366
708	C	0.943151	0.718883	0.999726
709	C	0.974317	0.695179	0.992344
710	H	0.949344	0.791448	0.680711
711	C	0.529352	0.726382	0.993694
712	H	0.550365	0.708357	0.987352
713	C	0.952267	0.638825	0.981553
714	H	0.926076	0.628155	0.952995
715	H	0.931258	0.615484	0.010425
716	H	0.981837	0.628471	0.973064
717	C	0.54744	0.86098	0.686513
718	H	0.57363	0.871646	0.715071
719	H	0.517869	0.871334	0.695002
720	H	0.56845	0.884321	0.657639
