data_C288H72N144O144_2018-02-15_10:38:06
#******************************************
#
# CIF file created by Zeo++
# Zeo++ is an open source package to
# analyze microporous materials
#
#*******************************************

_cell_length_a		29.5909   
_cell_length_b		29.5908   
_cell_length_c		29.9326   
_cell_angle_alpha		90   
_cell_angle_beta		90   
_cell_angle_gamma		120   

_symmetry_space_group_name_H-M		'P1'
_symmetry_Int_Tables_number		1
_symmetry_cell_setting		Monoclinic

loop_
_symmetry_equiv_pos_as_xyz
'+x,+y,+z'

loop_
_atom_site_label
_atom_site_type_symbol
_atom_site_fract_x
_atom_site_fract_y
_atom_site_fract_z
1	C	0.027538	0.228525	0.315391
2	C	0.027619	0.301834	0.016343
3	C	0.027538	0.228525	0.648726
4	C	0.027619	0.301834	0.349675
5	C	0.027538	0.228525	0.982058
6	C	0.027619	0.301834	0.68301
7	C	0.032264	0.803184	0.316832
8	C	0.033743	0.727555	0.009338
9	C	0.032264	0.803184	0.650166
10	C	0.033743	0.727555	0.342673
11	C	0.032264	0.803184	0.983498
12	C	0.033743	0.727555	0.676008
13	C	0.192425	0.387236	0.007351
14	N	0.139327	0.3597	0.00648
15	C	0.111498	0.307013	0.000597
16	N	0.138966	0.281751	0.995993
17	C	0.19193	0.306747	0.997857
18	N	0.217276	0.359357	0.003282
19	C	0.30641	0.113499	0.994897
20	N	0.359434	0.142638	0.996197
21	C	0.387354	0.195683	0.997774
22	N	0.358309	0.219732	0.998485
23	C	0.305076	0.19482	0.996357
24	N	0.281216	0.14158	0.994339
25	C	0.219668	0.279363	0.329162
26	C	0.194015	0.224773	0.324997
27	C	0.221218	0.196642	0.324815
28	C	0.27684	0.222659	0.329414
29	C	0.302641	0.278308	0.000396
30	H	0.154215	0.204326	0.322106
31	C	0.274325	0.305264	0.999578
32	H	0.294612	0.344986	0.003163
33	N	0.190787	0.14205	0.319721
34	N	0.356945	0.308936	0.007493
35	O	0.166044	0.129995	0.283346
36	O	0.366889	0.33281	0.044258
37	O	0.159203	0.121414	0.351583
38	O	0.379273	0.341224	0.976406
39	C	0.221051	0.442419	0.343311
40	C	0.196161	0.472255	0.343976
41	C	0.227013	0.026926	0.313705
42	C	0.279888	0.057651	0.328431
43	C	0.304823	0.029756	0.010781
44	H	0.156232	0.453458	0.343698
45	C	0.275951	0.470585	0.009732
46	H	0.295884	0.450575	0.00966
47	N	0.199882	0.049975	0.294113
48	N	0.355029	0.056176	0.030773
49	O	0.194226	0.041308	0.252794
50	O	0.35231	0.048497	0.072231
51	O	0.155297	0.032711	0.311148
52	O	0.385388	0.042235	0.014709
53	C	0.056321	0.279391	0.332961
54	C	0.47221	0.20105	0.313528
55	C	0.443113	0.223509	0.331642
56	C	0.472315	0.274926	0.016556
57	H	0.047109	0.211886	0.301041
58	H	0.047169	0.337875	0.031011
59	N	0.447052	0.154107	0.288392
60	N	0.44749	0.298612	0.039156
61	O	0.461177	0.122149	0.299646
62	O	0.465012	0.345165	0.026877
63	O	0.456202	0.163242	0.247384
64	O	0.454042	0.298701	0.080656
65	C	0.192425	0.387236	0.340685
66	N	0.139327	0.3597	0.339813
67	C	0.111498	0.307013	0.333928
68	N	0.138966	0.281751	0.329324
69	C	0.19193	0.306747	0.331188
70	N	0.217276	0.359357	0.336616
71	C	0.30641	0.113499	0.328229
72	N	0.359434	0.142638	0.329529
73	C	0.387354	0.195683	0.331105
74	N	0.358309	0.219732	0.331816
75	C	0.305076	0.19482	0.329688
76	N	0.281216	0.14158	0.327671
77	C	0.219668	0.279363	0.662497
78	C	0.194015	0.224773	0.658331
79	C	0.221218	0.196642	0.658148
80	C	0.27684	0.222659	0.662748
81	C	0.302641	0.278308	0.333729
82	H	0.154215	0.204326	0.655442
83	C	0.274325	0.305264	0.332909
84	H	0.294612	0.344986	0.336499
85	N	0.190787	0.14205	0.653056
86	N	0.356945	0.308936	0.340829
87	O	0.166044	0.129995	0.616681
88	O	0.366889	0.33281	0.377591
89	O	0.159203	0.121414	0.684918
90	O	0.379273	0.341224	0.309737
91	C	0.221051	0.442419	0.676643
92	C	0.196161	0.472255	0.677311
93	C	0.227013	0.026926	0.647039
94	C	0.279888	0.057651	0.661766
95	C	0.304823	0.029756	0.344116
96	H	0.156232	0.453458	0.67703
97	C	0.275951	0.470585	0.343067
98	H	0.295884	0.450575	0.342993
99	N	0.199882	0.049975	0.627449
100	N	0.355029	0.056176	0.364107
101	O	0.194226	0.041308	0.586129
102	O	0.35231	0.048497	0.405564
103	O	0.155297	0.032711	0.644484
104	O	0.385388	0.042235	0.348041
105	C	0.056321	0.279391	0.666296
106	C	0.47221	0.20105	0.646862
107	C	0.443113	0.223509	0.664976
108	C	0.472315	0.274926	0.349889
109	H	0.047109	0.211886	0.634374
110	H	0.047169	0.337875	0.364345
111	N	0.447052	0.154107	0.621726
112	N	0.44749	0.298612	0.37249
113	O	0.461177	0.122149	0.632981
114	O	0.465012	0.345165	0.360212
115	O	0.456202	0.163242	0.580717
116	O	0.454042	0.298701	0.413989
117	C	0.192425	0.387236	0.67402
118	N	0.139327	0.3597	0.673148
119	C	0.111498	0.307013	0.667261
120	N	0.138966	0.281751	0.662658
121	C	0.19193	0.306747	0.664522
122	N	0.217276	0.359357	0.669951
123	C	0.30641	0.113499	0.661562
124	N	0.359434	0.142638	0.662862
125	C	0.387354	0.195683	0.664438
126	N	0.358309	0.219732	0.66515
127	C	0.305076	0.19482	0.663022
128	N	0.281216	0.14158	0.661004
129	C	0.219668	0.279363	0.995829
130	C	0.194015	0.224773	0.991666
131	C	0.221218	0.196642	0.991483
132	C	0.27684	0.222659	0.996083
133	C	0.302641	0.278308	0.667061
134	H	0.154215	0.204326	0.988773
135	C	0.274325	0.305264	0.666242
136	H	0.294612	0.344986	0.669831
137	N	0.190787	0.14205	0.986388
138	N	0.356945	0.308936	0.67416
139	O	0.166044	0.129995	0.950013
140	O	0.366889	0.33281	0.710926
141	O	0.159203	0.121414	0.01825
142	O	0.379273	0.341224	0.64307
143	C	0.221051	0.442419	0.009976
144	C	0.196161	0.472255	0.010642
145	C	0.227013	0.026926	0.980374
146	C	0.279888	0.057651	0.995097
147	C	0.304823	0.029756	0.677448
148	H	0.156232	0.453458	0.010364
149	C	0.275951	0.470585	0.676399
150	H	0.295884	0.450575	0.676328
151	N	0.199882	0.049975	0.96078
152	N	0.355029	0.056176	0.697443
153	O	0.194226	0.041308	0.919461
154	O	0.35231	0.048497	0.738899
155	O	0.155297	0.032711	0.977815
156	O	0.385388	0.042235	0.681376
157	C	0.056321	0.279391	0.999628
158	C	0.47221	0.20105	0.980197
159	C	0.443113	0.223509	0.998308
160	C	0.472315	0.274926	0.683224
161	H	0.047109	0.211886	0.967709
162	H	0.047169	0.337875	0.69768
163	N	0.447052	0.154107	0.955061
164	N	0.44749	0.298612	0.705825
165	O	0.461177	0.122149	0.966313
166	O	0.465012	0.345165	0.693544
167	O	0.456202	0.163242	0.914052
168	O	0.454042	0.298701	0.747325
169	C	0.198155	0.888982	0.998782
170	N	0.145265	0.860921	0.994045
171	C	0.117474	0.807952	0.996187
172	N	0.145572	0.783279	0.001088
173	C	0.198528	0.808791	0.005055
174	N	0.223621	0.861815	0.004943
175	C	0.309214	0.6129	0.006025
176	N	0.362615	0.641483	0.004838
177	C	0.391925	0.694749	0.00257
178	N	0.363563	0.719668	0.002751
179	C	0.310389	0.695596	0.004122
180	N	0.285455	0.642373	0.005208
181	C	0.226324	0.781308	0.33988
182	C	0.202544	0.729002	0.325937
183	C	0.229451	0.70061	0.324376
184	C	0.282792	0.723969	0.338209
185	C	0.306936	0.777039	0.019776
186	H	0.165171	0.711446	0.313923
187	C	0.279012	0.804639	0.019656
188	H	0.297221	0.842171	0.031331
189	N	0.203176	0.650654	0.304266
190	N	0.357327	0.801607	0.039354
191	O	0.199569	0.654411	0.262742
192	O	0.354485	0.805865	0.080893
193	O	0.157685	0.623166	0.319606
194	O	0.386427	0.846495	0.023798
195	C	0.225442	0.944195	0.330572
196	C	0.201087	0.97169	0.315255
197	C	0.224181	0.527612	0.341934
198	C	0.280149	0.556715	0.341323
199	C	0.305178	0.525946	0.00928
200	H	0.163669	0.951203	0.303421
201	C	0.277821	0.974363	0.010954
202	H	0.296404	0.955882	0.023688
203	N	0.193947	0.552138	0.338457
204	N	0.359963	0.548997	0.009815
205	O	0.165277	0.536541	0.304231
206	O	0.375287	0.536166	0.044309
207	O	0.166088	0.544365	0.372543
208	O	0.376438	0.536915	0.975657
209	C	0.062074	0.780032	0.329028
210	C	0.47674	0.775732	0.318048
211	C	0.447965	0.722712	0.333261
212	C	0.478423	0.699228	0.012
213	H	0.05123	0.84077	0.305273
214	H	0.053756	0.709593	0.019895
215	N	0.450748	0.800921	0.300022
216	N	0.455173	0.648363	0.030139
217	O	0.456743	0.805908	0.258394
218	O	0.465502	0.649545	0.071021
219	O	0.467074	0.845504	0.316475
220	O	0.470527	0.62086	0.010386
221	C	0.198155	0.888982	0.332116
222	N	0.145265	0.860921	0.327376
223	C	0.117474	0.807952	0.329519
224	N	0.145572	0.783279	0.334421
225	C	0.198528	0.808791	0.33839
226	N	0.223621	0.861815	0.338276
227	C	0.309214	0.6129	0.339359
228	N	0.362615	0.641483	0.338173
229	C	0.391925	0.694749	0.335904
230	N	0.363563	0.719668	0.336085
231	C	0.310389	0.695596	0.337458
232	N	0.285455	0.642373	0.33854
233	C	0.226324	0.781308	0.673215
234	C	0.202544	0.729002	0.65927
235	C	0.229451	0.70061	0.65771
236	C	0.282792	0.723969	0.671544
237	C	0.306936	0.777039	0.353109
238	H	0.165171	0.711446	0.647257
239	C	0.279012	0.804639	0.352989
240	H	0.297221	0.842171	0.364665
241	N	0.203176	0.650654	0.637598
242	N	0.357327	0.801607	0.372687
243	O	0.199569	0.654411	0.596075
244	O	0.354485	0.805865	0.414227
245	O	0.157685	0.623166	0.652939
246	O	0.386427	0.846495	0.357132
247	C	0.225442	0.944195	0.663907
248	C	0.201087	0.97169	0.64859
249	C	0.224181	0.527612	0.675269
250	C	0.280149	0.556715	0.674655
251	C	0.305178	0.525946	0.342613
252	H	0.163669	0.951203	0.636756
253	C	0.277821	0.974363	0.34429
254	H	0.296404	0.955882	0.357022
255	N	0.193947	0.552138	0.671792
256	N	0.359963	0.548997	0.34315
257	O	0.165277	0.536541	0.637565
258	O	0.375287	0.536166	0.377641
259	O	0.166088	0.544365	0.705878
260	O	0.376438	0.536915	0.30899
261	C	0.062074	0.780032	0.66236
262	C	0.47674	0.775732	0.651382
263	C	0.447965	0.722712	0.666597
264	C	0.478423	0.699228	0.345335
265	H	0.05123	0.84077	0.638607
266	H	0.053756	0.709593	0.35323
267	N	0.450748	0.800921	0.633355
268	N	0.455173	0.648363	0.363473
269	O	0.456743	0.805908	0.591729
270	O	0.465502	0.649545	0.404355
271	O	0.467074	0.845504	0.649809
272	O	0.470527	0.62086	0.343718
273	C	0.198155	0.888982	0.665451
274	N	0.145265	0.860921	0.66071
275	C	0.117474	0.807952	0.662855
276	N	0.145572	0.783279	0.667756
277	C	0.198528	0.808791	0.671721
278	N	0.223621	0.861815	0.671611
279	C	0.309214	0.6129	0.672694
280	N	0.362615	0.641483	0.671504
281	C	0.391925	0.694749	0.669239
282	N	0.363563	0.719668	0.66942
283	C	0.310389	0.695596	0.670789
284	N	0.285455	0.642373	0.671875
285	C	0.226324	0.781308	0.006547
286	C	0.202544	0.729002	0.992605
287	C	0.229451	0.70061	0.991042
288	C	0.282792	0.723969	0.004877
289	C	0.306936	0.777039	0.686445
290	H	0.165171	0.711446	0.980592
291	C	0.279012	0.804639	0.686324
292	H	0.297221	0.842171	0.698
293	N	0.203176	0.650654	0.970933
294	N	0.357327	0.801607	0.706022
295	O	0.199569	0.654411	0.92941
296	O	0.354485	0.805865	0.747562
297	O	0.157685	0.623166	0.986274
298	O	0.386427	0.846495	0.690467
299	C	0.225442	0.944195	0.997239
300	C	0.201087	0.97169	0.981925
301	C	0.224181	0.527612	0.0086
302	C	0.280149	0.556715	0.007988
303	C	0.305178	0.525946	0.675948
304	H	0.163669	0.951203	0.970088
305	C	0.277821	0.974363	0.677621
306	H	0.296404	0.955882	0.690357
307	N	0.193947	0.552138	0.005124
308	N	0.359963	0.548997	0.676482
309	O	0.165277	0.536541	0.9709
310	O	0.375287	0.536166	0.710976
311	O	0.166088	0.544365	0.039211
312	O	0.376438	0.536915	0.642322
313	C	0.062074	0.780032	0.995696
314	C	0.47674	0.775732	0.984714
315	C	0.447965	0.722712	0.999928
316	C	0.478423	0.699228	0.678667
317	H	0.05123	0.84077	0.971942
318	H	0.053756	0.709593	0.686561
319	N	0.450748	0.800921	0.96669
320	N	0.455173	0.648363	0.696808
321	O	0.456743	0.805908	0.925064
322	O	0.465502	0.649545	0.73769
323	O	0.467074	0.845504	0.983144
324	O	0.470527	0.62086	0.677053
325	C	0.692426	0.387236	0.007351
326	N	0.639325	0.3597	0.00648
327	C	0.611498	0.307013	0.000597
328	N	0.638964	0.281751	0.995993
329	C	0.691931	0.306747	0.997857
330	N	0.717276	0.359357	0.003282
331	C	0.806409	0.113499	0.994897
332	N	0.859433	0.142638	0.996197
333	C	0.887354	0.195683	0.997774
334	N	0.858309	0.219732	0.998485
335	C	0.805077	0.19482	0.996357
336	N	0.781214	0.14158	0.994339
337	C	0.719667	0.279363	0.329162
338	C	0.694014	0.224773	0.324997
339	C	0.721218	0.196642	0.324815
340	C	0.776838	0.222659	0.329414
341	C	0.802641	0.278308	0.000396
342	H	0.654214	0.204326	0.322106
343	C	0.774323	0.305264	0.999578
344	H	0.794609	0.344986	0.003163
345	N	0.690786	0.14205	0.319721
346	N	0.856944	0.308936	0.007493
347	O	0.666043	0.129995	0.283346
348	O	0.866887	0.33281	0.044258
349	O	0.659201	0.121414	0.351583
350	O	0.879272	0.341224	0.976406
351	C	0.721052	0.442419	0.343311
352	C	0.69616	0.472255	0.343976
353	C	0.72701	0.026926	0.313705
354	C	0.779887	0.057651	0.328431
355	C	0.804823	0.029756	0.010781
356	H	0.656232	0.453458	0.343698
357	C	0.775951	0.470585	0.009732
358	H	0.795884	0.450575	0.00966
359	N	0.699881	0.049975	0.294113
360	N	0.855028	0.056176	0.030773
361	O	0.694226	0.041308	0.252794
362	O	0.852307	0.048497	0.072231
363	O	0.655295	0.032711	0.311148
364	O	0.885387	0.042235	0.014709
365	C	0.55632	0.279391	0.332961
366	C	0.527538	0.228525	0.315391
367	C	0.972208	0.20105	0.313528
368	C	0.943111	0.223509	0.331642
369	C	0.972314	0.274926	0.016556
370	H	0.547109	0.211886	0.301041
371	C	0.52762	0.301834	0.016343
372	H	0.547168	0.337875	0.031011
373	N	0.947051	0.154107	0.288392
374	N	0.94749	0.298612	0.039156
375	O	0.961176	0.122149	0.299646
376	O	0.965011	0.345165	0.026877
377	O	0.9562	0.163242	0.247384
378	O	0.95404	0.298701	0.080656
379	C	0.692426	0.387236	0.340685
380	N	0.639325	0.3597	0.339813
381	C	0.611498	0.307013	0.333928
382	N	0.638964	0.281751	0.329324
383	C	0.691931	0.306747	0.331188
384	N	0.717276	0.359357	0.336616
385	C	0.806409	0.113499	0.328229
386	N	0.859433	0.142638	0.329529
387	C	0.887354	0.195683	0.331105
388	N	0.858309	0.219732	0.331816
389	C	0.805077	0.19482	0.329688
390	N	0.781214	0.14158	0.327671
391	C	0.719667	0.279363	0.662497
392	C	0.694014	0.224773	0.658331
393	C	0.721218	0.196642	0.658148
394	C	0.776838	0.222659	0.662748
395	C	0.802641	0.278308	0.333729
396	H	0.654214	0.204326	0.655442
397	C	0.774323	0.305264	0.332909
398	H	0.794609	0.344986	0.336499
399	N	0.690786	0.14205	0.653056
400	N	0.856944	0.308936	0.340829
401	O	0.666043	0.129995	0.616681
402	O	0.866887	0.33281	0.377591
403	O	0.659201	0.121414	0.684918
404	O	0.879272	0.341224	0.309737
405	C	0.721052	0.442419	0.676643
406	C	0.69616	0.472255	0.677311
407	C	0.72701	0.026926	0.647039
408	C	0.779887	0.057651	0.661766
409	C	0.804823	0.029756	0.344116
410	H	0.656232	0.453458	0.67703
411	C	0.775951	0.470585	0.343067
412	H	0.795884	0.450575	0.342993
413	N	0.699881	0.049975	0.627449
414	N	0.855028	0.056176	0.364107
415	O	0.694226	0.041308	0.586129
416	O	0.852307	0.048497	0.405564
417	O	0.655295	0.032711	0.644484
418	O	0.885387	0.042235	0.348041
419	C	0.55632	0.279391	0.666296
420	C	0.527538	0.228525	0.648726
421	C	0.972208	0.20105	0.646862
422	C	0.943111	0.223509	0.664976
423	C	0.972314	0.274926	0.349889
424	H	0.547109	0.211886	0.634374
425	C	0.52762	0.301834	0.349675
426	H	0.547168	0.337875	0.364345
427	N	0.947051	0.154107	0.621726
428	N	0.94749	0.298612	0.37249
429	O	0.961176	0.122149	0.632981
430	O	0.965011	0.345165	0.360212
431	O	0.9562	0.163242	0.580717
432	O	0.95404	0.298701	0.413989
433	C	0.692426	0.387236	0.67402
434	N	0.639325	0.3597	0.673148
435	C	0.611498	0.307013	0.667261
436	N	0.638964	0.281751	0.662658
437	C	0.691931	0.306747	0.664522
438	N	0.717276	0.359357	0.669951
439	C	0.806409	0.113499	0.661562
440	N	0.859433	0.142638	0.662862
441	C	0.887354	0.195683	0.664438
442	N	0.858309	0.219732	0.66515
443	C	0.805077	0.19482	0.663022
444	N	0.781214	0.14158	0.661004
445	C	0.719667	0.279363	0.995829
446	C	0.694014	0.224773	0.991666
447	C	0.721218	0.196642	0.991483
448	C	0.776838	0.222659	0.996083
449	C	0.802641	0.278308	0.667061
450	H	0.654214	0.204326	0.988773
451	C	0.774323	0.305264	0.666242
452	H	0.794609	0.344986	0.669831
453	N	0.690786	0.14205	0.986388
454	N	0.856944	0.308936	0.67416
455	O	0.666043	0.129995	0.950013
456	O	0.866887	0.33281	0.710926
457	O	0.659201	0.121414	0.01825
458	O	0.879272	0.341224	0.64307
459	C	0.721052	0.442419	0.009976
460	C	0.69616	0.472255	0.010642
461	C	0.72701	0.026926	0.980374
462	C	0.779887	0.057651	0.995097
463	C	0.804823	0.029756	0.677448
464	H	0.656232	0.453458	0.010364
465	C	0.775951	0.470585	0.676399
466	H	0.795884	0.450575	0.676328
467	N	0.699881	0.049975	0.96078
468	N	0.855028	0.056176	0.697443
469	O	0.694226	0.041308	0.919461
470	O	0.852307	0.048497	0.738899
471	O	0.655295	0.032711	0.977815
472	O	0.885387	0.042235	0.681376
473	C	0.55632	0.279391	0.999628
474	C	0.527538	0.228525	0.982058
475	C	0.972208	0.20105	0.980197
476	C	0.943111	0.223509	0.998308
477	C	0.972314	0.274926	0.683224
478	H	0.547109	0.211886	0.967709
479	C	0.52762	0.301834	0.68301
480	H	0.547168	0.337875	0.69768
481	N	0.947051	0.154107	0.955061
482	N	0.94749	0.298612	0.705825
483	O	0.961176	0.122149	0.966313
484	O	0.965011	0.345165	0.693544
485	O	0.9562	0.163242	0.914052
486	O	0.95404	0.298701	0.747325
487	C	0.698154	0.888982	0.998782
488	N	0.645265	0.860921	0.994045
489	C	0.617473	0.807952	0.996187
490	N	0.645571	0.783279	0.001088
491	C	0.698528	0.808791	0.005055
492	N	0.72362	0.861815	0.004943
493	C	0.809211	0.6129	0.006025
494	N	0.862613	0.641483	0.004838
495	C	0.891922	0.694749	0.00257
496	N	0.863562	0.719668	0.002751
497	C	0.810388	0.695596	0.004122
498	N	0.785453	0.642373	0.005208
499	C	0.726324	0.781308	0.33988
500	C	0.702543	0.729002	0.325937
501	C	0.729451	0.70061	0.324376
502	C	0.782792	0.723969	0.338209
503	C	0.806934	0.777039	0.019776
504	H	0.66517	0.711446	0.313923
505	C	0.779012	0.804639	0.019656
506	H	0.79722	0.842171	0.031331
507	N	0.703175	0.650654	0.304266
508	N	0.857328	0.801607	0.039354
509	O	0.699569	0.654411	0.262742
510	O	0.854485	0.805865	0.080893
511	O	0.657685	0.623166	0.319606
512	O	0.886425	0.846495	0.023798
513	C	0.725442	0.944195	0.330572
514	C	0.701086	0.97169	0.315255
515	C	0.72418	0.527612	0.341934
516	C	0.780149	0.556715	0.341323
517	C	0.805179	0.525946	0.00928
518	H	0.663669	0.951203	0.303421
519	C	0.77782	0.974363	0.010954
520	H	0.796403	0.955882	0.023688
521	N	0.693946	0.552138	0.338457
522	N	0.859961	0.548997	0.009815
523	O	0.665277	0.536541	0.304231
524	O	0.875286	0.536166	0.044309
525	O	0.666086	0.544365	0.372543
526	O	0.876438	0.536915	0.975657
527	C	0.562074	0.780032	0.329028
528	C	0.532263	0.803184	0.316832
529	C	0.976738	0.775732	0.318048
530	C	0.947964	0.722712	0.333261
531	C	0.978421	0.699228	0.012
532	H	0.55123	0.84077	0.305273
533	C	0.533742	0.727555	0.009338
534	H	0.553755	0.709593	0.019895
535	N	0.950746	0.800921	0.300022
536	N	0.955172	0.648363	0.030139
537	O	0.956741	0.805908	0.258394
538	O	0.965502	0.649545	0.071021
539	O	0.967073	0.845504	0.316475
540	O	0.970527	0.62086	0.010386
541	C	0.698154	0.888982	0.332116
542	N	0.645265	0.860921	0.327376
543	C	0.617473	0.807952	0.329519
544	N	0.645571	0.783279	0.334421
545	C	0.698528	0.808791	0.33839
546	N	0.72362	0.861815	0.338276
547	C	0.809211	0.6129	0.339359
548	N	0.862613	0.641483	0.338173
549	C	0.891922	0.694749	0.335904
550	N	0.863562	0.719668	0.336085
551	C	0.810388	0.695596	0.337458
552	N	0.785453	0.642373	0.33854
553	C	0.726324	0.781308	0.673215
554	C	0.702543	0.729002	0.65927
555	C	0.729451	0.70061	0.65771
556	C	0.782792	0.723969	0.671544
557	C	0.806934	0.777039	0.353109
558	H	0.66517	0.711446	0.647257
559	C	0.779012	0.804639	0.352989
560	H	0.79722	0.842171	0.364665
561	N	0.703175	0.650654	0.637598
562	N	0.857328	0.801607	0.372687
563	O	0.699569	0.654411	0.596075
564	O	0.854485	0.805865	0.414227
565	O	0.657685	0.623166	0.652939
566	O	0.886425	0.846495	0.357132
567	C	0.725442	0.944195	0.663907
568	C	0.701086	0.97169	0.64859
569	C	0.72418	0.527612	0.675269
570	C	0.780149	0.556715	0.674655
571	C	0.805179	0.525946	0.342613
572	H	0.663669	0.951203	0.636756
573	C	0.77782	0.974363	0.34429
574	H	0.796403	0.955882	0.357022
575	N	0.693946	0.552138	0.671792
576	N	0.859961	0.548997	0.34315
577	O	0.665277	0.536541	0.637565
578	O	0.875286	0.536166	0.377641
579	O	0.666086	0.544365	0.705878
580	O	0.876438	0.536915	0.30899
581	C	0.562074	0.780032	0.66236
582	C	0.532263	0.803184	0.650166
583	C	0.976738	0.775732	0.651382
584	C	0.947964	0.722712	0.666597
585	C	0.978421	0.699228	0.345335
586	H	0.55123	0.84077	0.638607
587	C	0.533742	0.727555	0.342673
588	H	0.553755	0.709593	0.35323
589	N	0.950746	0.800921	0.633355
590	N	0.955172	0.648363	0.363473
591	O	0.956741	0.805908	0.591729
592	O	0.965502	0.649545	0.404355
593	O	0.967073	0.845504	0.649809
594	O	0.970527	0.62086	0.343718
595	C	0.698154	0.888982	0.665451
596	N	0.645265	0.860921	0.66071
597	C	0.617473	0.807952	0.662855
598	N	0.645571	0.783279	0.667756
599	C	0.698528	0.808791	0.671721
600	N	0.72362	0.861815	0.671611
601	C	0.809211	0.6129	0.672694
602	N	0.862613	0.641483	0.671504
603	C	0.891922	0.694749	0.669239
604	N	0.863562	0.719668	0.66942
605	C	0.810388	0.695596	0.670789
606	N	0.785453	0.642373	0.671875
607	C	0.726324	0.781308	0.006547
608	C	0.702543	0.729002	0.992605
609	C	0.729451	0.70061	0.991042
610	C	0.782792	0.723969	0.004877
611	C	0.806934	0.777039	0.686445
612	H	0.66517	0.711446	0.980592
613	C	0.779012	0.804639	0.686324
614	H	0.79722	0.842171	0.698
615	N	0.703175	0.650654	0.970933
616	N	0.857328	0.801607	0.706022
617	O	0.699569	0.654411	0.92941
618	O	0.854485	0.805865	0.747562
619	O	0.657685	0.623166	0.986274
620	O	0.886425	0.846495	0.690467
621	C	0.725442	0.944195	0.997239
622	C	0.701086	0.97169	0.981925
623	C	0.72418	0.527612	0.0086
624	C	0.780149	0.556715	0.007988
625	C	0.805179	0.525946	0.675948
626	H	0.663669	0.951203	0.970088
627	C	0.77782	0.974363	0.677621
628	H	0.796403	0.955882	0.690357
629	N	0.693946	0.552138	0.005124
630	N	0.859961	0.548997	0.676482
631	O	0.665277	0.536541	0.9709
632	O	0.875286	0.536166	0.710976
633	O	0.666086	0.544365	0.039211
634	O	0.876438	0.536915	0.642322
635	C	0.562074	0.780032	0.995696
636	C	0.532263	0.803184	0.983498
637	C	0.976738	0.775732	0.984714
638	C	0.947964	0.722712	0.999928
639	C	0.978421	0.699228	0.678667
640	H	0.55123	0.84077	0.971942
641	C	0.533742	0.727555	0.676008
642	H	0.553755	0.709593	0.686561
643	N	0.950746	0.800921	0.96669
644	N	0.955172	0.648363	0.696808
645	O	0.956741	0.805908	0.925064
646	O	0.965502	0.649545	0.73769
647	O	0.967073	0.845504	0.983144
648	O	0.970527	0.62086	0.677053
