data_C162H90N36O36_2018-02-15_10:45:40
#******************************************
#
# CIF file created by Zeo++
# Zeo++ is an open source package to
# analyze microporous materials
#
#*******************************************

_cell_length_a		29.5274   
_cell_length_b		29.5274   
_cell_length_c		29.9454   
_cell_angle_alpha		90   
_cell_angle_beta		90   
_cell_angle_gamma		120   

_symmetry_space_group_name_H-M		'P1'
_symmetry_Int_Tables_number		1
_symmetry_cell_setting		Monoclinic

loop_
_symmetry_equiv_pos_as_xyz
'+x,+y,+z'

loop_
_atom_site_label
_atom_site_type_symbol
_atom_site_fract_x
_atom_site_fract_y
_atom_site_fract_z
1	C	0.370412	0.648214	0.994466
2	C	0.388739	0.702606	0.994379
3	C	0.35406	0.722656	0.994466
4	C	0.299671	0.686593	0.994389
5	C	0.279619	0.631864	0.99448
6	C	0.315682	0.613535	0.994389
7	H	0.274094	0.700542	0.994242
8	H	0.301733	0.57401	0.994246
9	H	0.428265	0.728182	0.994226
10	C	0.371795	0.776161	0.99444
11	C	0.226114	0.596093	0.994466
12	C	0.406182	0.630479	0.994443
13	H	0.443077	0.655175	0.98566
14	H	0.213907	0.559197	0.985687
15	H	0.347099	0.788358	0.985657
16	C	0.631763	0.352678	0.998707
17	C	0.614024	0.298457	0.99859
18	C	0.649591	0.279546	0.998704
19	C	0.703816	0.316029	0.998584
20	C	0.722736	0.370512	0.998741
21	C	0.686244	0.388243	0.998584
22	H	0.7299	0.302725	0.996961
23	H	0.699551	0.427632	0.996957
24	H	0.574637	0.272372	0.996937
25	C	0.632245	0.226627	0.99447
26	C	0.775652	0.406077	0.994496
27	C	0.596208	0.370048	0.99447
28	H	0.566276	0.351299	0.973488
29	H	0.786827	0.436013	0.973521
30	H	0.651008	0.215452	0.973498
31	C	0.423475	0.561872	0.341782
32	C	0.46901	0.582207	0.035405
33	C	0.497708	0.555552	0.037013
34	C	0.481416	0.508535	0.013189
35	C	0.435554	0.488626	0.320346
36	C	0.406727	0.514706	0.318344
37	H	0.422277	0.45442	0.302973
38	H	0.373443	0.499095	0.299337
39	C	0.510788	0.482189	0.015059
40	C	0.523215	0.466695	0.056139
41	C	0.553762	0.44189	0.055778
42	C	0.57111	0.431152	0.015452
43	C	0.558676	0.446685	0.308208
44	C	0.528806	0.471681	0.308046
45	H	0.562745	0.430866	0.085391
46	H	0.571982	0.440557	0.278535
47	H	0.521241	0.483167	0.278014
48	H	0.531061	0.570991	0.055886
49	N	0.503639	0.474665	0.096786
50	N	0.48415	0.627961	0.060841
51	O	0.539966	0.502986	0.123223
52	O	0.529111	0.663821	0.05023
53	O	0.473602	0.432051	0.115832
54	O	0.483662	0.619092	0.101933
55	N	0.601005	0.409342	0.016917
56	N	0.393563	0.583638	0.339307
57	C	0.440406	0.862061	0.341785
58	C	0.420073	0.887261	0.03541
59	C	0.446725	0.942612	0.037017
60	C	0.493742	0.973334	0.013196
61	C	0.51365	0.947383	0.32035
62	C	0.487573	0.892478	0.31835
63	H	0.547854	0.968312	0.302975
64	H	0.503176	0.874802	0.299335
65	C	0.520092	0.029055	0.015064
66	C	0.535588	0.056979	0.056143
67	C	0.560394	0.112329	0.055779
68	C	0.571167	0.140418	0.015451
69	C	0.555632	0.112449	0.308208
70	C	0.530581	0.057578	0.308052
71	H	0.571414	0.132337	0.085392
72	H	0.561733	0.131879	0.278538
73	H	0.519116	0.03853	0.278018
74	H	0.431286	0.960526	0.05589
75	N	0.527607	0.029435	0.096793
76	N	0.374309	0.856645	0.06084
77	O	0.499285	0.037449	0.123223
78	O	0.338453	0.865749	0.050223
79	O	0.570215	0.042006	0.115845
80	O	0.38317	0.865022	0.101933
81	N	0.59295	0.192119	0.016915
82	N	0.418635	0.810379	0.339311
83	C	0.140222	0.578832	0.341842
84	C	0.115022	0.533273	0.035438
85	C	0.059671	0.504566	0.037034
86	C	0.028943	0.520849	0.013206
87	C	0.054894	0.566705	0.320354
88	C	0.109799	0.59555	0.318372
89	H	0.033962	0.579974	0.302977
90	H	0.127471	0.628825	0.299356
91	C	0.973224	0.491473	0.015075
92	C	0.945303	0.479057	0.056155
93	C	0.889953	0.448499	0.055797
94	C	0.86186	0.431199	0.015469
95	C	0.889828	0.443615	0.308226
96	C	0.944698	0.473465	0.308063
97	H	0.869946	0.439548	0.085408
98	H	0.870392	0.430299	0.278556
99	H	0.963743	0.481012	0.27803
100	H	0.041758	0.471204	0.055899
101	N	0.972851	0.498625	0.096802
102	N	0.145638	0.518128	0.060868
103	O	0.964841	0.462292	0.123237
104	O	0.13655	0.473175	0.050236
105	O	0.960278	0.528663	0.115852
106	O	0.137242	0.518585	0.10196
107	N	0.810159	0.401287	0.016937
108	N	0.1919	0.608721	0.339344
109	C	0.370412	0.648214	0.327801
110	C	0.388739	0.702606	0.327711
111	C	0.35406	0.722656	0.3278
112	C	0.299671	0.686593	0.327722
113	C	0.279619	0.631864	0.327814
114	C	0.315682	0.613535	0.327724
115	H	0.274094	0.700542	0.327576
116	H	0.301733	0.57401	0.327579
117	H	0.428265	0.728182	0.327558
118	C	0.371795	0.776161	0.327773
119	C	0.226114	0.596093	0.3278
120	C	0.406182	0.630479	0.327774
121	H	0.443077	0.655175	0.318992
122	H	0.213907	0.559197	0.319021
123	H	0.347099	0.788358	0.31899
124	C	0.631763	0.352678	0.332042
125	C	0.614024	0.298457	0.331923
126	C	0.649591	0.279546	0.332038
127	C	0.703816	0.316029	0.331917
128	C	0.722736	0.370512	0.332074
129	C	0.686244	0.388243	0.331916
130	H	0.7299	0.302725	0.330293
131	H	0.699551	0.427632	0.330291
132	H	0.574637	0.272372	0.330269
133	C	0.632245	0.226627	0.327804
134	C	0.775652	0.406077	0.327829
135	C	0.596208	0.370048	0.327801
136	H	0.566276	0.351299	0.306822
137	H	0.786827	0.436013	0.306855
138	H	0.651008	0.215452	0.306832
139	C	0.423475	0.561872	0.675118
140	C	0.46901	0.582207	0.368738
141	C	0.497708	0.555552	0.370347
142	C	0.481416	0.508535	0.346524
143	C	0.435554	0.488626	0.653679
144	C	0.406727	0.514706	0.651676
145	H	0.422277	0.45442	0.636305
146	H	0.373443	0.499095	0.632671
147	C	0.510788	0.482189	0.348394
148	C	0.523215	0.466695	0.389472
149	C	0.553762	0.44189	0.389111
150	C	0.57111	0.431152	0.348785
151	C	0.558676	0.446685	0.641541
152	C	0.528806	0.471681	0.64138
153	H	0.562745	0.430866	0.418725
154	H	0.571982	0.440557	0.61187
155	H	0.521241	0.483167	0.611346
156	H	0.531061	0.570991	0.389218
157	N	0.503639	0.474665	0.430119
158	N	0.48415	0.627961	0.394174
159	O	0.539966	0.502986	0.456557
160	O	0.529111	0.663821	0.383565
161	O	0.473602	0.432051	0.449164
162	O	0.483662	0.619092	0.435265
163	N	0.601005	0.409342	0.350251
164	N	0.393563	0.583638	0.672641
165	C	0.440406	0.862061	0.675118
166	C	0.420073	0.887261	0.368744
167	C	0.446725	0.942612	0.370351
168	C	0.493742	0.973334	0.346531
169	C	0.51365	0.947383	0.653683
170	C	0.487573	0.892478	0.651682
171	H	0.547854	0.968312	0.636308
172	H	0.503176	0.874802	0.632668
173	C	0.520092	0.029055	0.348397
174	C	0.535588	0.056979	0.389475
175	C	0.560394	0.112329	0.389111
176	C	0.571167	0.140418	0.348785
177	C	0.555632	0.112449	0.641541
178	C	0.530581	0.057578	0.641387
179	H	0.571414	0.132337	0.418725
180	H	0.561733	0.131879	0.61187
181	H	0.519116	0.03853	0.611352
182	H	0.431286	0.960526	0.389225
183	N	0.527607	0.029435	0.430126
184	N	0.374309	0.856645	0.394174
185	O	0.499285	0.037449	0.456557
186	O	0.338453	0.865749	0.383555
187	O	0.570215	0.042006	0.449177
188	O	0.38317	0.865022	0.435265
189	N	0.59295	0.192119	0.350247
190	N	0.418635	0.810379	0.672644
191	C	0.140222	0.578832	0.675175
192	C	0.115022	0.533273	0.368771
193	C	0.059671	0.504566	0.370367
194	C	0.028943	0.520849	0.346541
195	C	0.054894	0.566705	0.653689
196	C	0.109799	0.59555	0.651706
197	H	0.033962	0.579974	0.636311
198	H	0.127471	0.628825	0.632688
199	C	0.973224	0.491473	0.348407
200	C	0.945303	0.479057	0.389489
201	C	0.889953	0.448499	0.389131
202	C	0.86186	0.431199	0.348801
203	C	0.889828	0.443615	0.641561
204	C	0.944698	0.473465	0.641397
205	H	0.869946	0.439548	0.418742
206	H	0.870392	0.430299	0.61189
207	H	0.963743	0.481012	0.611362
208	H	0.041758	0.471204	0.389232
209	N	0.972851	0.498625	0.430136
210	N	0.145638	0.518128	0.394201
211	O	0.964841	0.462292	0.456571
212	O	0.13655	0.473175	0.383568
213	O	0.960278	0.528663	0.449184
214	O	0.137242	0.518585	0.435292
215	N	0.810159	0.401287	0.350271
216	N	0.1919	0.608721	0.672677
217	C	0.370412	0.648214	0.661133
218	C	0.388739	0.702606	0.661046
219	C	0.35406	0.722656	0.661133
220	C	0.299671	0.686593	0.661056
221	C	0.279619	0.631864	0.661146
222	C	0.315682	0.613535	0.661056
223	H	0.274094	0.700542	0.660909
224	H	0.301733	0.57401	0.660913
225	H	0.428265	0.728182	0.660893
226	C	0.371795	0.776161	0.661106
227	C	0.226114	0.596093	0.661133
228	C	0.406182	0.630479	0.661106
229	H	0.443077	0.655175	0.652327
230	H	0.213907	0.559197	0.652354
231	H	0.347099	0.788358	0.652324
232	C	0.631763	0.352678	0.665374
233	C	0.614024	0.298457	0.665257
234	C	0.649591	0.279546	0.665371
235	C	0.703816	0.316029	0.665251
236	C	0.722736	0.370512	0.665407
237	C	0.686244	0.388243	0.665251
238	H	0.7299	0.302725	0.663628
239	H	0.699551	0.427632	0.663624
240	H	0.574637	0.272372	0.663604
241	C	0.632245	0.226627	0.661136
242	C	0.775652	0.406077	0.661163
243	C	0.596208	0.370048	0.661133
244	H	0.566276	0.351299	0.640155
245	H	0.786827	0.436013	0.640188
246	H	0.651008	0.215452	0.640165
247	C	0.423475	0.561872	0.00845
248	C	0.46901	0.582207	0.702071
249	C	0.497708	0.555552	0.70368
250	C	0.481416	0.508535	0.679857
251	C	0.435554	0.488626	0.987013
252	C	0.406727	0.514706	0.985012
253	H	0.422277	0.45442	0.969641
254	H	0.373443	0.499095	0.966004
255	C	0.510788	0.482189	0.681727
256	C	0.523215	0.466695	0.722805
257	C	0.553762	0.44189	0.722445
258	C	0.57111	0.431152	0.682118
259	C	0.558676	0.446685	0.974874
260	C	0.528806	0.471681	0.974714
261	H	0.562745	0.430866	0.752058
262	H	0.571982	0.440557	0.945203
263	H	0.521241	0.483167	0.944682
264	H	0.531061	0.570991	0.722551
265	N	0.503639	0.474665	0.763453
266	N	0.48415	0.627961	0.727507
267	O	0.539966	0.502986	0.789891
268	O	0.529111	0.663821	0.716898
269	O	0.473602	0.432051	0.782497
270	O	0.483662	0.619092	0.768599
271	N	0.601005	0.409342	0.683584
272	N	0.393563	0.583638	0.005975
273	C	0.440406	0.862061	0.008453
274	C	0.420073	0.887261	0.702078
275	C	0.446725	0.942612	0.703684
276	C	0.493742	0.973334	0.679864
277	C	0.51365	0.947383	0.987016
278	C	0.487573	0.892478	0.985016
279	H	0.547854	0.968312	0.969641
280	H	0.503176	0.874802	0.966001
281	C	0.520092	0.029055	0.68173
282	C	0.535588	0.056979	0.722809
283	C	0.560394	0.112329	0.722448
284	C	0.571167	0.140418	0.682118
285	C	0.555632	0.112449	0.974874
286	C	0.530581	0.057578	0.97472
287	H	0.571414	0.132337	0.752058
288	H	0.561733	0.131879	0.945203
289	H	0.519116	0.03853	0.944686
290	H	0.431286	0.960526	0.722558
291	N	0.527607	0.029435	0.763459
292	N	0.374309	0.856645	0.727507
293	O	0.499285	0.037449	0.789891
294	O	0.338453	0.865749	0.716891
295	O	0.570215	0.042006	0.782514
296	O	0.38317	0.865022	0.768599
297	N	0.59295	0.192119	0.683581
298	N	0.418635	0.810379	0.005976
299	C	0.140222	0.578832	0.008507
300	C	0.115022	0.533273	0.702104
301	C	0.059671	0.504566	0.7037
302	C	0.028943	0.520849	0.679874
303	C	0.054894	0.566705	0.987023
304	C	0.109799	0.59555	0.985039
305	H	0.033962	0.579974	0.969644
306	H	0.127471	0.628825	0.966021
307	C	0.973224	0.491473	0.681741
308	C	0.945303	0.479057	0.722822
309	C	0.889953	0.448499	0.722465
310	C	0.86186	0.431199	0.682135
311	C	0.889828	0.443615	0.974894
312	C	0.944698	0.473465	0.97473
313	H	0.869946	0.439548	0.752075
314	H	0.870392	0.430299	0.945223
315	H	0.963743	0.481012	0.944696
316	H	0.041758	0.471204	0.722565
317	N	0.972851	0.498625	0.763469
318	N	0.145638	0.518128	0.727534
319	O	0.964841	0.462292	0.789904
320	O	0.13655	0.473175	0.716901
321	O	0.960278	0.528663	0.782521
322	O	0.137242	0.518585	0.768625
323	N	0.810159	0.401287	0.683604
324	N	0.1919	0.608721	0.006012
