data_C144H108N54O18_2018-02-15_10:32:31
#******************************************
#
# CIF file created by Zeo++
# Zeo++ is an open source package to
# analyze microporous materials
#
#*******************************************

_cell_length_a		29.1514   
_cell_length_b		29.1521   
_cell_length_c		30.0662   
_cell_angle_alpha		90   
_cell_angle_beta		90   
_cell_angle_gamma		120   

_symmetry_space_group_name_H-M		'P1'
_symmetry_Int_Tables_number		1
_symmetry_cell_setting		Monoclinic

loop_
_symmetry_equiv_pos_as_xyz
'+x,+y,+z'

loop_
_atom_site_label
_atom_site_type_symbol
_atom_site_fract_x
_atom_site_fract_y
_atom_site_fract_z
1	C	0.27882	0.628298	0.96584
2	N	0.316434	0.613797	0.966332
3	C	0.369011	0.650044	0.299649
4	N	0.383509	0.702154	0.966565
5	C	0.347268	0.718489	0.966073
6	N	0.295147	0.680876	0.966106
7	C	0.407924	0.634667	0.968764
8	C	0.362647	0.772793	0.301633
9	C	0.224514	0.58935	0.967862
10	O	0.323497	0.785009	0.968218
11	O	0.212344	0.537996	0.968128
12	O	0.459284	0.673833	0.969159
13	C	0.719217	0.361228	0.03067
14	N	0.689713	0.385446	0.030832
15	C	0.635939	0.357367	0.364277
16	N	0.611724	0.303648	0.031029
17	C	0.639805	0.277956	0.030879
18	N	0.693529	0.307452	0.030768
19	C	0.605434	0.382726	0.030739
20	C	0.614402	0.222094	0.363991
21	C	0.775077	0.391736	0.030238
22	O	0.645476	0.200228	0.036743
23	O	0.796889	0.444696	0.036146
24	O	0.552482	0.351577	0.036686
25	C	0.596617	0.45915	0.016555
26	C	0.598936	0.486112	0.310302
27	N	0.566048	0.505849	0.304515
28	C	0.531333	0.503227	0.002616
29	C	0.528839	0.479053	0.044294
30	C	0.562049	0.457102	0.05042
31	H	0.560726	0.438648	0.079738
32	C	0.497398	0.522671	0.324026
33	C	0.456761	0.498268	0.291549
34	C	0.423493	0.520037	0.284666
35	C	0.430735	0.565129	0.308243
36	C	0.471693	0.586862	0.006873
37	N	0.502712	0.565168	0.013625
38	H	0.393311	0.502882	0.262016
39	H	0.477245	0.617675	0.026673
40	H	0.622982	0.488381	0.284656
41	C	0.44713	0.450122	0.266715
42	H	0.440107	0.418593	0.290067
43	H	0.481567	0.459086	0.246316
44	H	0.412824	0.435249	0.244709
45	C	0.491295	0.474173	0.079945
46	H	0.450806	0.453212	0.067232
47	H	0.500534	0.513466	0.091159
48	H	0.493119	0.452463	0.108852
49	N	0.395611	0.582981	0.302658
50	H	0.358785	0.555888	0.297615
51	N	0.626366	0.435146	0.021068
52	H	0.66291	0.454955	0.010639
53	C	0.538075	0.136946	0.016504
54	C	0.511613	0.11242	0.310049
55	N	0.491911	0.059802	0.304237
56	C	0.494126	0.027625	0.002478
57	C	0.517843	0.049201	0.044314
58	C	0.539721	0.104344	0.050488
59	H	0.557849	0.121409	0.079929
60	C	0.474737	0.974255	0.323901
61	C	0.49953	0.957992	0.291823
62	C	0.477709	0.90295	0.284919
63	C	0.432204	0.865135	0.308083
64	C	0.410062	0.884389	0.006302
65	N	0.431815	0.937102	0.013097
66	H	0.49515	0.889903	0.262574
67	H	0.378943	0.859146	0.025838
68	H	0.509636	0.134268	0.284324
69	C	0.54811	0.996472	0.267457
70	H	0.579312	0.020818	0.291116
71	H	0.539581	0.022107	0.246848
72	H	0.563209	0.977016	0.245719
73	C	0.52228	0.016431	0.080111
74	H	0.54339	0.996936	0.067669
75	H	0.482847	0.986348	0.091017
76	H	0.543638	0.039881	0.109164
77	N	0.414338	0.812142	0.302546
78	H	0.441464	0.80237	0.297887
79	N	0.561905	0.19067	0.021215
80	H	0.542229	0.207377	0.010408
81	C	0.860262	0.400658	0.015632
82	C	0.884765	0.398428	0.309261
83	N	0.937377	0.431312	0.303373
84	C	0.969585	0.465958	0.001461
85	C	0.948045	0.468379	0.043236
86	C	0.892904	0.435158	0.049478
87	H	0.87588	0.436402	0.078883
88	C	0.022966	0.499828	0.322825
89	C	0.039252	0.540531	0.290404
90	C	0.094302	0.573783	0.283558
91	C	0.132118	0.566468	0.307116
92	C	0.11284	0.525428	0.005672
93	N	0.06012	0.494434	0.012394
94	H	0.107367	0.604033	0.26097
95	H	0.138062	0.519819	0.025474
96	H	0.862897	0.374417	0.283632
97	C	0.000776	0.550255	0.265611
98	H	0.976294	0.557278	0.288989
99	H	0.975276	0.515862	0.245181
100	H	0.020241	0.584593	0.24364
101	C	0.980821	0.505849	0.078889
102	H	0.000353	0.546358	0.066225
103	H	0.010871	0.496549	0.08999
104	H	0.957369	0.504007	0.107862
105	N	0.185112	0.601625	0.301649
106	H	0.194851	0.63847	0.296728
107	N	0.806534	0.370825	0.020341
108	H	0.789735	0.334342	0.009768
109	C	0.27882	0.628298	0.299174
110	N	0.316434	0.613797	0.299668
111	C	0.369011	0.650044	0.632981
112	N	0.383509	0.702154	0.299898
113	C	0.347268	0.718489	0.299408
114	N	0.295147	0.680876	0.299439
115	C	0.407924	0.634667	0.302097
116	C	0.362647	0.772793	0.634966
117	C	0.224514	0.58935	0.301196
118	O	0.323497	0.785009	0.301553
119	O	0.212344	0.537996	0.301464
120	O	0.459284	0.673833	0.302493
121	C	0.719217	0.361228	0.364004
122	N	0.689713	0.385446	0.364164
123	C	0.635939	0.357367	0.697612
124	N	0.611724	0.303648	0.364363
125	C	0.639805	0.277956	0.364213
126	N	0.693529	0.307452	0.3641
127	C	0.605434	0.382726	0.364074
128	C	0.614402	0.222094	0.697325
129	C	0.775077	0.391736	0.363572
130	O	0.645476	0.200228	0.370077
131	O	0.796889	0.444696	0.369479
132	O	0.552482	0.351577	0.370021
133	C	0.596617	0.45915	0.349888
134	C	0.598936	0.486112	0.643634
135	N	0.566048	0.505849	0.637847
136	C	0.531333	0.503227	0.335949
137	C	0.528839	0.479053	0.377627
138	C	0.562049	0.457102	0.383754
139	H	0.560726	0.438648	0.413072
140	C	0.497398	0.522671	0.65736
141	C	0.456761	0.498268	0.624882
142	C	0.423493	0.520037	0.617997
143	C	0.430735	0.565129	0.641575
144	C	0.471693	0.586862	0.340206
145	N	0.502712	0.565168	0.346958
146	H	0.393311	0.502882	0.59535
147	H	0.477245	0.617675	0.360006
148	H	0.622982	0.488381	0.617987
149	C	0.44713	0.450122	0.600047
150	H	0.440107	0.418593	0.623399
151	H	0.481567	0.459086	0.579648
152	H	0.412824	0.435249	0.578042
153	C	0.491295	0.474173	0.413279
154	H	0.450806	0.453212	0.400563
155	H	0.500534	0.513466	0.424491
156	H	0.493119	0.452463	0.442185
157	N	0.395611	0.582981	0.635991
158	H	0.358785	0.555888	0.630949
159	N	0.626366	0.435146	0.354402
160	H	0.66291	0.454955	0.343971
161	C	0.538075	0.136946	0.349835
162	C	0.511613	0.11242	0.643381
163	N	0.491911	0.059802	0.637571
164	C	0.494126	0.027625	0.335809
165	C	0.517843	0.049201	0.377647
166	C	0.539721	0.104344	0.38382
167	H	0.557849	0.121409	0.413262
168	C	0.474737	0.974255	0.657234
169	C	0.49953	0.957992	0.625155
170	C	0.477709	0.90295	0.618253
171	C	0.432204	0.865135	0.641415
172	C	0.410062	0.884389	0.339634
173	N	0.431815	0.937102	0.346429
174	H	0.49515	0.889903	0.595906
175	H	0.378943	0.859146	0.359171
176	H	0.509636	0.134268	0.617658
177	C	0.54811	0.996472	0.600788
178	H	0.579312	0.020818	0.62445
179	H	0.539581	0.022107	0.580181
180	H	0.563209	0.977016	0.579053
181	C	0.52228	0.016431	0.413445
182	H	0.54339	0.996936	0.401002
183	H	0.482847	0.986348	0.424351
184	H	0.543638	0.039881	0.442497
185	N	0.414338	0.812142	0.635881
186	H	0.441464	0.80237	0.631221
187	N	0.561905	0.19067	0.354548
188	H	0.542229	0.207377	0.343742
189	C	0.860262	0.400658	0.348964
190	C	0.884765	0.398428	0.642593
191	N	0.937377	0.431312	0.636706
192	C	0.969585	0.465958	0.334795
193	C	0.948045	0.468379	0.37657
194	C	0.892904	0.435158	0.382809
195	H	0.87588	0.436402	0.412214
196	C	0.022966	0.499828	0.656156
197	C	0.039252	0.540531	0.623738
198	C	0.094302	0.573783	0.61689
199	C	0.132118	0.566468	0.640451
200	C	0.11284	0.525428	0.339006
201	N	0.06012	0.494434	0.345728
202	H	0.107367	0.604033	0.594303
203	H	0.138062	0.519819	0.358805
204	H	0.862897	0.374417	0.616966
205	C	0.000776	0.550255	0.598942
206	H	0.976294	0.557278	0.622321
207	H	0.975276	0.515862	0.578514
208	H	0.020241	0.584593	0.576974
209	C	0.980821	0.505849	0.412221
210	H	0.000353	0.546358	0.399559
211	H	0.010871	0.496549	0.423323
212	H	0.957369	0.504007	0.441194
213	N	0.185112	0.601625	0.634983
214	H	0.194851	0.63847	0.630061
215	N	0.806534	0.370825	0.353673
216	H	0.789735	0.334342	0.3431
217	C	0.27882	0.628298	0.632508
218	N	0.316434	0.613797	0.633001
219	C	0.369011	0.650044	0.966316
220	N	0.383509	0.702154	0.63323
221	C	0.347268	0.718489	0.632741
222	N	0.295147	0.680876	0.632771
223	C	0.407924	0.634667	0.635429
224	C	0.362647	0.772793	0.968298
225	C	0.224514	0.58935	0.634531
226	O	0.323497	0.785009	0.634887
227	O	0.212344	0.537996	0.634797
228	O	0.459284	0.673833	0.635824
229	C	0.719217	0.361228	0.697335
230	N	0.689713	0.385446	0.697498
231	C	0.635939	0.357367	0.030945
232	N	0.611724	0.303648	0.697695
233	C	0.639805	0.277956	0.697545
234	N	0.693529	0.307452	0.697432
235	C	0.605434	0.382726	0.697405
236	C	0.614402	0.222094	0.030658
237	C	0.775077	0.391736	0.696903
238	O	0.645476	0.200228	0.703409
239	O	0.796889	0.444696	0.702813
240	O	0.552482	0.351577	0.703352
241	C	0.596617	0.45915	0.68322
242	C	0.598936	0.486112	0.976969
243	N	0.566048	0.505849	0.971182
244	C	0.531333	0.503227	0.669281
245	C	0.528839	0.479053	0.710959
246	C	0.562049	0.457102	0.717085
247	H	0.560726	0.438648	0.746404
248	C	0.497398	0.522671	0.990692
249	C	0.456761	0.498268	0.958217
250	C	0.423493	0.520037	0.951332
251	C	0.430735	0.565129	0.97491
252	C	0.471693	0.586862	0.673538
253	N	0.502712	0.565168	0.68029
254	H	0.393311	0.502882	0.928682
255	H	0.477245	0.617675	0.693338
256	H	0.622982	0.488381	0.951322
257	C	0.44713	0.450122	0.933382
258	H	0.440107	0.418593	0.956733
259	H	0.481567	0.459086	0.912983
260	H	0.412824	0.435249	0.911377
261	C	0.491295	0.474173	0.74661
262	H	0.450806	0.453212	0.733898
263	H	0.500534	0.513466	0.757825
264	H	0.493119	0.452463	0.775516
265	N	0.395611	0.582981	0.969322
266	H	0.358785	0.555888	0.96428
267	N	0.626366	0.435146	0.687733
268	H	0.66291	0.454955	0.677306
269	C	0.538075	0.136946	0.68317
270	C	0.511613	0.11242	0.976713
271	N	0.491911	0.059802	0.970902
272	C	0.494126	0.027625	0.669144
273	C	0.517843	0.049201	0.710979
274	C	0.539721	0.104344	0.717155
275	H	0.557849	0.121409	0.746594
276	C	0.474737	0.974255	0.990565
277	C	0.49953	0.957992	0.95849
278	C	0.477709	0.90295	0.951585
279	C	0.432204	0.865135	0.974747
280	C	0.410062	0.884389	0.672966
281	N	0.431815	0.937102	0.679764
282	H	0.49515	0.889903	0.929241
283	H	0.378943	0.859146	0.692503
284	H	0.509636	0.134268	0.950989
285	C	0.54811	0.996472	0.934123
286	H	0.579312	0.020818	0.957781
287	H	0.539581	0.022107	0.913515
288	H	0.563209	0.977016	0.912385
289	C	0.52228	0.016431	0.746776
290	H	0.54339	0.996936	0.734334
291	H	0.482847	0.986348	0.757682
292	H	0.543638	0.039881	0.775829
293	N	0.414338	0.812142	0.969213
294	H	0.441464	0.80237	0.964553
295	N	0.561905	0.19067	0.68788
296	H	0.542229	0.207377	0.677073
297	C	0.860262	0.400658	0.682299
298	C	0.884765	0.398428	0.975928
299	N	0.937377	0.431312	0.970037
300	C	0.969585	0.465958	0.668127
301	C	0.948045	0.468379	0.709901
302	C	0.892904	0.435158	0.716144
303	H	0.87588	0.436402	0.745549
304	C	0.022966	0.499828	0.989491
305	C	0.039252	0.540531	0.957069
306	C	0.094302	0.573783	0.950224
307	C	0.132118	0.566468	0.973782
308	C	0.11284	0.525428	0.672337
309	N	0.06012	0.494434	0.679059
310	H	0.107367	0.604033	0.927638
311	H	0.138062	0.519819	0.69214
312	H	0.862897	0.374417	0.950298
313	C	0.000776	0.550255	0.932277
314	H	0.976294	0.557278	0.955656
315	H	0.975276	0.515862	0.911846
316	H	0.020241	0.584593	0.910306
317	C	0.980821	0.505849	0.745556
318	H	0.000353	0.546358	0.73289
319	H	0.010871	0.496549	0.756655
320	H	0.957369	0.504007	0.774529
321	N	0.185112	0.601625	0.968315
322	H	0.194851	0.63847	0.963392
323	N	0.806534	0.370825	0.687008
324	H	0.789735	0.334342	0.676435
