data_C360H144N144_2018-02-15_10:37:24
#******************************************
#
# CIF file created by Zeo++
# Zeo++ is an open source package to
# analyze microporous materials
#
#*******************************************

_cell_length_a		29.1259   
_cell_length_b		29.1259   
_cell_length_c		29.5368   
_cell_angle_alpha		90   
_cell_angle_beta		90   
_cell_angle_gamma		120   

_symmetry_space_group_name_H-M		'P1'
_symmetry_Int_Tables_number		1
_symmetry_cell_setting		Monoclinic

loop_
_symmetry_equiv_pos_as_xyz
'+x,+y,+z'

loop_
_atom_site_label
_atom_site_type_symbol
_atom_site_fract_x
_atom_site_fract_y
_atom_site_fract_z
1	C	0.040026	0.271975	0.049425
2	C	0.068504	0.286214	0.008101
3	C	0.039701	0.271811	0.300407
4	N	0.065429	0.284678	0.090135
5	C	0.039596	0.27176	0.130404
6	H	0.060453	0.282189	0.160042
7	H	0.05925	0.281586	0.270006
8	C	0.040026	0.271975	0.382759
9	C	0.068504	0.286214	0.341435
10	C	0.039701	0.271811	0.633741
11	N	0.065429	0.284678	0.423468
12	C	0.039596	0.27176	0.463739
13	H	0.060453	0.282189	0.493377
14	H	0.05925	0.281586	0.603341
15	C	0.040026	0.271975	0.716092
16	C	0.068504	0.286214	0.674767
17	C	0.039701	0.271811	0.967073
18	N	0.065429	0.284678	0.7568
19	C	0.039596	0.27176	0.797072
20	H	0.060453	0.282189	0.82671
21	H	0.05925	0.281586	0.936674
22	C	0.040025	0.771975	0.049425
23	C	0.068506	0.786215	0.008101
24	C	0.039703	0.771812	0.300407
25	N	0.06543	0.784677	0.090135
26	C	0.039595	0.77176	0.130404
27	H	0.060454	0.782191	0.160042
28	H	0.05925	0.781585	0.270006
29	C	0.040025	0.771975	0.382759
30	C	0.068506	0.786215	0.341435
31	C	0.039703	0.771812	0.633741
32	N	0.06543	0.784677	0.423468
33	C	0.039595	0.77176	0.463739
34	H	0.060454	0.782191	0.493377
35	H	0.05925	0.781585	0.603341
36	C	0.040025	0.771975	0.716092
37	C	0.068506	0.786215	0.674767
38	C	0.039703	0.771812	0.967073
39	N	0.06543	0.784677	0.756804
40	C	0.039595	0.77176	0.797072
41	H	0.060454	0.782191	0.82671
42	H	0.05925	0.781585	0.936674
43	N	0.151579	0.368021	0.007332
44	C	0.124245	0.314084	0.007108
45	N	0.151578	0.287479	0.007328
46	N	0.151579	0.368021	0.340663
47	C	0.124245	0.314084	0.340439
48	N	0.151578	0.287479	0.340663
49	N	0.151579	0.368021	0.673995
50	C	0.124245	0.314084	0.673772
51	N	0.151578	0.287479	0.673995
52	N	0.151581	0.868023	0.007332
53	C	0.124247	0.814086	0.007108
54	N	0.151579	0.78748	0.007328
55	N	0.151581	0.868023	0.340663
56	C	0.124247	0.814086	0.340439
57	N	0.151579	0.78748	0.340663
58	N	0.151581	0.868023	0.673995
59	C	0.124247	0.814086	0.673772
60	N	0.151579	0.78748	0.673995
61	C	0.205517	0.395354	0.007108
62	C	0.205516	0.314082	0.007105
63	N	0.232121	0.36802	0.007332
64	C	0.233386	0.286211	0.008101
65	N	0.234923	0.284673	0.090134
66	H	0.23741	0.282185	0.160042
67	H	0.238014	0.281583	0.270006
68	C	0.233388	0.451095	0.008102
69	N	0.234925	0.454171	0.090135
70	H	0.237412	0.459146	0.160043
71	H	0.238015	0.460348	0.270007
72	C	0.205517	0.395354	0.340439
73	C	0.205516	0.314082	0.340439
74	N	0.232121	0.36802	0.340663
75	C	0.233386	0.286211	0.341435
76	N	0.234923	0.284673	0.423468
77	H	0.23741	0.282185	0.493377
78	H	0.238014	0.281583	0.603341
79	C	0.233388	0.451095	0.341435
80	N	0.234925	0.454171	0.423468
81	H	0.237412	0.459146	0.493377
82	H	0.238015	0.460348	0.603341
83	C	0.205517	0.395354	0.673775
84	C	0.205516	0.314082	0.673772
85	N	0.232121	0.36802	0.673995
86	C	0.233386	0.286211	0.674767
87	N	0.234923	0.284673	0.7568
88	H	0.23741	0.282185	0.82671
89	H	0.238014	0.281583	0.936674
90	C	0.233388	0.451095	0.674771
91	N	0.234925	0.454171	0.756804
92	H	0.237412	0.459146	0.82671
93	H	0.238015	0.460348	0.936674
94	C	0.205518	0.895354	0.007108
95	C	0.205516	0.814082	0.007105
96	N	0.232121	0.868019	0.007332
97	C	0.233387	0.786211	0.008101
98	N	0.234923	0.784673	0.090134
99	H	0.237412	0.782187	0.160042
100	H	0.238015	0.781585	0.270006
101	C	0.23339	0.951095	0.008102
102	N	0.234926	0.954172	0.090135
103	H	0.237413	0.959147	0.160043
104	H	0.238015	0.960348	0.270007
105	C	0.205518	0.895354	0.340439
106	C	0.205516	0.814082	0.340439
107	N	0.232121	0.868019	0.340663
108	C	0.233387	0.786211	0.341435
109	N	0.234923	0.784673	0.423468
110	H	0.237412	0.782187	0.493377
111	H	0.238015	0.781585	0.603341
112	C	0.23339	0.951095	0.341435
113	N	0.234926	0.954172	0.423468
114	H	0.237413	0.959147	0.493377
115	H	0.238015	0.960348	0.603341
116	C	0.205518	0.895354	0.673775
117	C	0.205516	0.814082	0.673772
118	N	0.232121	0.868019	0.673995
119	C	0.233387	0.786211	0.674767
120	N	0.234923	0.784673	0.7568
121	H	0.237412	0.782187	0.82671
122	H	0.238015	0.781585	0.936674
123	C	0.23339	0.951095	0.674771
124	N	0.234926	0.954172	0.756804
125	H	0.237413	0.959147	0.82671
126	H	0.238015	0.960348	0.936674
127	C	0.318003	0.120326	0.007108
128	N	0.37194	0.147658	0.007332
129	C	0.399274	0.201595	0.007108
130	N	0.371942	0.228201	0.007332
131	C	0.318005	0.201597	0.007108
132	N	0.291399	0.14766	0.007332
133	C	0.290135	0.229469	0.008102
134	C	0.275894	0.243708	0.049425
135	C	0.247626	0.271973	0.049425
136	C	0.247789	0.27181	0.300407
137	C	0.275732	0.243869	0.300408
138	C	0.24784	0.271757	0.130404
139	C	0.275679	0.243924	0.130405
140	N	0.288597	0.231008	0.090136
141	H	0.286108	0.233497	0.160043
142	H	0.285507	0.234094	0.270008
143	C	0.290131	0.064585	0.008102
144	C	0.275893	0.036106	0.049425
145	C	0.247628	0.479576	0.049425
146	C	0.247789	0.479897	0.300408
147	C	0.27573	0.035781	0.300408
148	C	0.247841	0.480004	0.130405
149	C	0.275678	0.035676	0.130405
150	N	0.288595	0.061509	0.090135
151	H	0.286107	0.056532	0.160043
152	H	0.285504	0.05533	0.270007
153	C	0.455015	0.229466	0.008102
154	C	0.483494	0.243706	0.049425
155	C	0.483819	0.243868	0.300407
156	C	0.483924	0.243921	0.130405
157	N	0.458091	0.231003	0.090135
158	H	0.46307	0.233491	0.160043
159	H	0.464267	0.234093	0.270007
160	C	0.318003	0.120326	0.340439
161	N	0.37194	0.147658	0.340663
162	C	0.399274	0.201595	0.340439
163	N	0.371942	0.228201	0.340663
164	C	0.318005	0.201597	0.340443
165	N	0.291399	0.14766	0.340663
166	C	0.290135	0.229469	0.341438
167	C	0.275894	0.243708	0.382759
168	C	0.247626	0.271973	0.382759
169	C	0.247789	0.27181	0.633741
170	C	0.275732	0.243869	0.633741
171	C	0.24784	0.271757	0.463739
172	C	0.275679	0.243924	0.463739
173	N	0.288597	0.231008	0.423468
174	H	0.286108	0.233497	0.493377
175	H	0.285507	0.234094	0.603341
176	C	0.290131	0.064585	0.341435
177	C	0.275893	0.036106	0.382759
178	C	0.247628	0.479576	0.382759
179	C	0.247789	0.479897	0.633741
180	C	0.27573	0.035781	0.633741
181	C	0.247841	0.480004	0.463739
182	C	0.275678	0.035676	0.463739
183	N	0.288595	0.061509	0.423468
184	H	0.286107	0.056532	0.493377
185	H	0.285504	0.05533	0.603341
186	C	0.455015	0.229466	0.341435
187	C	0.483494	0.243706	0.382759
188	C	0.483819	0.243868	0.633741
189	C	0.483924	0.243921	0.463739
190	N	0.458091	0.231003	0.423468
191	H	0.46307	0.233491	0.493377
192	H	0.464267	0.234093	0.603341
193	C	0.318003	0.120326	0.673775
194	N	0.37194	0.147658	0.673995
195	C	0.399274	0.201595	0.673775
196	N	0.371942	0.228201	0.673999
197	C	0.318005	0.201597	0.673775
198	N	0.291399	0.14766	0.673999
199	C	0.290135	0.229469	0.674771
200	C	0.275894	0.243708	0.716092
201	C	0.247626	0.271973	0.716092
202	C	0.247789	0.27181	0.967077
203	C	0.275732	0.243869	0.967077
204	C	0.24784	0.271757	0.797072
205	C	0.275679	0.243924	0.797072
206	N	0.288597	0.231008	0.756804
207	H	0.286108	0.233497	0.82671
208	H	0.285507	0.234094	0.936674
209	C	0.290131	0.064585	0.674771
210	C	0.275893	0.036106	0.716092
211	C	0.247628	0.479576	0.716092
212	C	0.247789	0.479897	0.967077
213	C	0.27573	0.035781	0.967077
214	C	0.247841	0.480004	0.797072
215	C	0.275678	0.035676	0.797072
216	N	0.288595	0.061509	0.756804
217	H	0.286107	0.056532	0.82671
218	H	0.285504	0.05533	0.936674
219	C	0.455015	0.229466	0.674771
220	C	0.483494	0.243706	0.716092
221	C	0.483819	0.243868	0.967077
222	C	0.483924	0.243921	0.797072
223	N	0.458091	0.231003	0.756804
224	H	0.46307	0.233491	0.82671
225	H	0.464267	0.234093	0.936674
226	C	0.318004	0.620328	0.007108
227	N	0.371941	0.647659	0.007332
228	C	0.399275	0.701596	0.007108
229	N	0.371943	0.728202	0.007332
230	C	0.318005	0.701596	0.007108
231	N	0.291399	0.647659	0.007332
232	C	0.290136	0.729471	0.008102
233	C	0.275894	0.743708	0.049425
234	C	0.247627	0.771975	0.049425
235	C	0.247791	0.771812	0.300407
236	C	0.275733	0.74387	0.300408
237	C	0.24784	0.771756	0.130404
238	C	0.27568	0.743926	0.130405
239	N	0.288598	0.731009	0.090136
240	H	0.286109	0.733499	0.160043
241	H	0.285507	0.734094	0.270008
242	C	0.290133	0.564587	0.008102
243	C	0.275893	0.536106	0.049425
244	C	0.247629	0.979576	0.049425
245	C	0.24779	0.979898	0.300408
246	C	0.27573	0.535781	0.300408
247	C	0.247842	0.980005	0.130405
248	C	0.27568	0.535677	0.130405
249	N	0.288596	0.56151	0.090135
250	H	0.286109	0.556535	0.160043
251	H	0.285505	0.55533	0.270007
252	C	0.455016	0.729467	0.008102
253	C	0.483495	0.743708	0.049425
254	C	0.48382	0.74387	0.300407
255	C	0.483926	0.743922	0.130405
256	N	0.458093	0.731005	0.090135
257	H	0.463069	0.733491	0.160043
258	H	0.464269	0.734094	0.270007
259	C	0.318004	0.620328	0.340439
260	N	0.371941	0.647659	0.340663
261	C	0.399275	0.701596	0.340439
262	N	0.371943	0.728202	0.340663
263	C	0.318005	0.701596	0.340443
264	N	0.291399	0.647659	0.340663
265	C	0.290136	0.729471	0.341438
266	C	0.275894	0.743708	0.382759
267	C	0.247627	0.771975	0.382759
268	C	0.247791	0.771812	0.633741
269	C	0.275733	0.74387	0.633741
270	C	0.24784	0.771756	0.463739
271	C	0.27568	0.743926	0.463739
272	N	0.288598	0.731009	0.423468
273	H	0.286109	0.733499	0.493377
274	H	0.285507	0.734094	0.603341
275	C	0.290133	0.564587	0.341435
276	C	0.275893	0.536106	0.382759
277	C	0.247629	0.979576	0.382759
278	C	0.24779	0.979898	0.633741
279	C	0.27573	0.535781	0.633741
280	C	0.247842	0.980005	0.463739
281	C	0.27568	0.535677	0.463739
282	N	0.288596	0.56151	0.423468
283	H	0.286109	0.556535	0.493377
284	H	0.285505	0.55533	0.603341
285	C	0.455016	0.729467	0.341435
286	C	0.483495	0.743708	0.382759
287	C	0.48382	0.74387	0.633741
288	C	0.483926	0.743922	0.463739
289	N	0.458093	0.731005	0.423468
290	H	0.463069	0.733491	0.493377
291	H	0.464269	0.734094	0.603341
292	C	0.318004	0.620328	0.673775
293	N	0.371941	0.647659	0.673995
294	C	0.399275	0.701596	0.673775
295	N	0.371943	0.728202	0.673999
296	C	0.318005	0.701596	0.673775
297	N	0.291399	0.647659	0.673999
298	C	0.290136	0.729471	0.674771
299	C	0.275894	0.743708	0.716092
300	C	0.247627	0.771975	0.716092
301	C	0.247791	0.771812	0.967077
302	C	0.275733	0.74387	0.967077
303	C	0.24784	0.771756	0.797072
304	C	0.27568	0.743926	0.797072
305	N	0.288598	0.731009	0.756804
306	H	0.286109	0.733499	0.82671
307	H	0.285507	0.734094	0.936674
308	C	0.290133	0.564587	0.674771
309	C	0.275893	0.536106	0.716092
310	C	0.247629	0.979576	0.716092
311	C	0.24779	0.979898	0.967077
312	C	0.27573	0.535781	0.967077
313	C	0.247842	0.980005	0.797072
314	C	0.27568	0.535677	0.797072
315	N	0.288596	0.56151	0.756804
316	H	0.286109	0.556535	0.82671
317	H	0.285505	0.55533	0.936674
318	C	0.455016	0.729467	0.674771
319	C	0.483495	0.743708	0.716092
320	C	0.48382	0.74387	0.967077
321	C	0.483926	0.743922	0.797072
322	N	0.458093	0.731005	0.756804
323	H	0.463069	0.733491	0.82671
324	H	0.464269	0.734094	0.936674
325	C	0.705518	0.395354	0.007108
326	N	0.651581	0.368021	0.007332
327	C	0.624245	0.314084	0.007108
328	N	0.65158	0.287479	0.007328
329	C	0.705516	0.314082	0.007105
330	N	0.732121	0.36802	0.007332
331	C	0.818004	0.120326	0.007108
332	N	0.87194	0.147658	0.007332
333	C	0.899276	0.201595	0.007108
334	N	0.871942	0.228201	0.007332
335	C	0.818006	0.201597	0.007108
336	N	0.791401	0.14766	0.007332
337	C	0.790134	0.229469	0.008102
338	C	0.775894	0.243708	0.049425
339	C	0.747628	0.271973	0.049425
340	C	0.733388	0.286211	0.008101
341	C	0.74779	0.27181	0.300407
342	C	0.775731	0.243869	0.300408
343	N	0.734923	0.284673	0.090134
344	C	0.74784	0.271757	0.130404
345	C	0.77568	0.243924	0.130405
346	N	0.788596	0.231008	0.090136
347	H	0.737411	0.282185	0.160042
348	H	0.786109	0.233497	0.160043
349	H	0.785508	0.234094	0.270008
350	H	0.738017	0.281583	0.270006
351	C	0.79013	0.064585	0.008102
352	C	0.775894	0.036106	0.049425
353	C	0.747629	0.479576	0.049425
354	C	0.733388	0.451095	0.008102
355	C	0.747789	0.479897	0.300408
356	C	0.775731	0.035781	0.300408
357	N	0.734926	0.454171	0.090135
358	C	0.747843	0.480004	0.130405
359	C	0.775679	0.035676	0.130405
360	N	0.788596	0.061509	0.090135
361	H	0.737414	0.459146	0.160043
362	H	0.786107	0.056532	0.160043
363	H	0.785506	0.05533	0.270007
364	H	0.738015	0.460348	0.270007
365	C	0.955017	0.229466	0.008102
366	C	0.983495	0.243706	0.049425
367	C	0.540027	0.271975	0.049425
368	C	0.568505	0.286214	0.008101
369	C	0.539701	0.271811	0.300407
370	C	0.98382	0.243868	0.300407
371	N	0.56543	0.284678	0.090135
372	C	0.539597	0.27176	0.130404
373	C	0.983926	0.243921	0.130405
374	N	0.958092	0.231003	0.090135
375	H	0.560454	0.282189	0.160042
376	H	0.963068	0.233491	0.160043
377	H	0.964269	0.234093	0.270007
378	H	0.559249	0.281586	0.270006
379	C	0.705518	0.395354	0.340439
380	N	0.651581	0.368021	0.340663
381	C	0.624245	0.314084	0.340439
382	N	0.65158	0.287479	0.340663
383	C	0.705516	0.314082	0.340439
384	N	0.732121	0.36802	0.340663
385	C	0.818004	0.120326	0.340439
386	N	0.87194	0.147658	0.340663
387	C	0.899276	0.201595	0.340439
388	N	0.871942	0.228201	0.340663
389	C	0.818006	0.201597	0.340443
390	N	0.791401	0.14766	0.340663
391	C	0.790134	0.229469	0.341438
392	C	0.775894	0.243708	0.382759
393	C	0.747628	0.271973	0.382759
394	C	0.733388	0.286211	0.341435
395	C	0.74779	0.27181	0.633741
396	C	0.775731	0.243869	0.633741
397	N	0.734923	0.284673	0.423468
398	C	0.74784	0.271757	0.463739
399	C	0.77568	0.243924	0.463739
400	N	0.788596	0.231008	0.423468
401	H	0.737411	0.282185	0.493377
402	H	0.786109	0.233497	0.493377
403	H	0.785508	0.234094	0.603341
404	H	0.738017	0.281583	0.603341
405	C	0.79013	0.064585	0.341435
406	C	0.775894	0.036106	0.382759
407	C	0.747629	0.479576	0.382759
408	C	0.733388	0.451095	0.341435
409	C	0.747789	0.479897	0.633741
410	C	0.775731	0.035781	0.633741
411	N	0.734926	0.454171	0.423468
412	C	0.747843	0.480004	0.463739
413	C	0.775679	0.035676	0.463739
414	N	0.788596	0.061509	0.423468
415	H	0.737414	0.459146	0.493377
416	H	0.786107	0.056532	0.493377
417	H	0.785506	0.05533	0.603341
418	H	0.738015	0.460348	0.603341
419	C	0.955017	0.229466	0.341435
420	C	0.983495	0.243706	0.382759
421	C	0.540027	0.271975	0.382759
422	C	0.568505	0.286214	0.341435
423	C	0.539701	0.271811	0.633741
424	C	0.98382	0.243868	0.633741
425	N	0.56543	0.284678	0.423468
426	C	0.539597	0.27176	0.463739
427	C	0.983926	0.243921	0.463739
428	N	0.958092	0.231003	0.423468
429	H	0.560454	0.282189	0.493377
430	H	0.963068	0.233491	0.493377
431	H	0.964269	0.234093	0.603341
432	H	0.559249	0.281586	0.603341
433	C	0.705518	0.395354	0.673775
434	N	0.651581	0.368021	0.673995
435	C	0.624245	0.314084	0.673772
436	N	0.65158	0.287479	0.673995
437	C	0.705516	0.314082	0.673772
438	N	0.732121	0.36802	0.673995
439	C	0.818004	0.120326	0.673775
440	N	0.87194	0.147658	0.673995
441	C	0.899276	0.201595	0.673775
442	N	0.871942	0.228201	0.673999
443	C	0.818006	0.201597	0.673775
444	N	0.791401	0.14766	0.673999
445	C	0.790134	0.229469	0.674771
446	C	0.775894	0.243708	0.716092
447	C	0.747628	0.271973	0.716092
448	C	0.733388	0.286211	0.674767
449	C	0.74779	0.27181	0.967077
450	C	0.775731	0.243869	0.967077
451	N	0.734923	0.284673	0.7568
452	C	0.74784	0.271757	0.797072
453	C	0.77568	0.243924	0.797072
454	N	0.788596	0.231008	0.756804
455	H	0.737411	0.282185	0.82671
456	H	0.786109	0.233497	0.82671
457	H	0.785508	0.234094	0.936674
458	H	0.738017	0.281583	0.936674
459	C	0.79013	0.064585	0.674771
460	C	0.775894	0.036106	0.716092
461	C	0.747629	0.479576	0.716092
462	C	0.733388	0.451095	0.674771
463	C	0.747789	0.479897	0.967077
464	C	0.775731	0.035781	0.967077
465	N	0.734926	0.454171	0.756804
466	C	0.747843	0.480004	0.797072
467	C	0.775679	0.035676	0.797072
468	N	0.788596	0.061509	0.756804
469	H	0.737414	0.459146	0.82671
470	H	0.786107	0.056532	0.82671
471	H	0.785506	0.05533	0.936674
472	H	0.738015	0.460348	0.936674
473	C	0.955017	0.229466	0.674771
474	C	0.983495	0.243706	0.716092
475	C	0.540027	0.271975	0.716092
476	C	0.568505	0.286214	0.674767
477	C	0.539701	0.271811	0.967073
478	C	0.98382	0.243868	0.967077
479	N	0.56543	0.284678	0.7568
480	C	0.539597	0.27176	0.797072
481	C	0.983926	0.243921	0.797072
482	N	0.958092	0.231003	0.756804
483	H	0.560454	0.282189	0.82671
484	H	0.963068	0.233491	0.82671
485	H	0.964269	0.234093	0.936674
486	H	0.559249	0.281586	0.936674
487	C	0.705518	0.895354	0.007108
488	N	0.651581	0.868023	0.007332
489	C	0.624247	0.814086	0.007108
490	N	0.651579	0.78748	0.007328
491	C	0.705517	0.814082	0.007105
492	N	0.732121	0.868019	0.007332
493	C	0.818005	0.620328	0.007108
494	N	0.871941	0.647659	0.007332
495	C	0.899277	0.701596	0.007108
496	N	0.871943	0.728202	0.007332
497	C	0.818006	0.701596	0.007108
498	N	0.791401	0.647659	0.007332
499	C	0.790138	0.729471	0.008102
500	C	0.775894	0.743708	0.049425
501	C	0.747629	0.771975	0.049425
502	C	0.733387	0.786211	0.008101
503	C	0.747791	0.771812	0.300407
504	C	0.775735	0.74387	0.300408
505	N	0.734924	0.784673	0.090134
506	C	0.747839	0.771756	0.130404
507	C	0.77568	0.743926	0.130405
508	N	0.788597	0.731009	0.090136
509	H	0.737412	0.782187	0.160042
510	H	0.786109	0.733499	0.160043
511	H	0.785507	0.734094	0.270008
512	H	0.738017	0.781585	0.270006
513	C	0.790134	0.564587	0.008102
514	C	0.775894	0.536106	0.049425
515	C	0.747629	0.979576	0.049425
516	C	0.73339	0.951095	0.008102
517	C	0.74779	0.979898	0.300408
518	C	0.775731	0.535781	0.300408
519	N	0.734926	0.954172	0.090135
520	C	0.747843	0.980005	0.130405
521	C	0.77568	0.535677	0.130405
522	N	0.788596	0.56151	0.090135
523	H	0.737414	0.959147	0.160043
524	H	0.786108	0.556535	0.160043
525	H	0.785506	0.55533	0.270007
526	H	0.738016	0.960348	0.270007
527	C	0.955017	0.729467	0.008102
528	C	0.983496	0.743708	0.049425
529	C	0.540027	0.771975	0.049425
530	C	0.568506	0.786215	0.008101
531	C	0.539702	0.771812	0.300407
532	C	0.983821	0.74387	0.300407
533	N	0.56543	0.784677	0.090135
534	C	0.539598	0.77176	0.130404
535	C	0.983926	0.743922	0.130405
536	N	0.958093	0.731005	0.090135
537	H	0.560455	0.782191	0.160042
538	H	0.963068	0.733491	0.160043
539	H	0.964269	0.734094	0.270007
540	H	0.559251	0.781585	0.270006
541	C	0.705518	0.895354	0.340439
542	N	0.651581	0.868023	0.340663
543	C	0.624247	0.814086	0.340439
544	N	0.651579	0.78748	0.340663
545	C	0.705517	0.814082	0.340439
546	N	0.732121	0.868019	0.340663
547	C	0.818005	0.620328	0.340439
548	N	0.871941	0.647659	0.340663
549	C	0.899277	0.701596	0.340439
550	N	0.871943	0.728202	0.340663
551	C	0.818006	0.701596	0.340443
552	N	0.791401	0.647659	0.340663
553	C	0.790138	0.729471	0.341438
554	C	0.775894	0.743708	0.382759
555	C	0.747629	0.771975	0.382759
556	C	0.733387	0.786211	0.341435
557	C	0.747791	0.771812	0.633741
558	C	0.775735	0.74387	0.633741
559	N	0.734924	0.784673	0.423468
560	C	0.747839	0.771756	0.463739
561	C	0.77568	0.743926	0.463739
562	N	0.788597	0.731009	0.423468
563	H	0.737412	0.782187	0.493377
564	H	0.786109	0.733499	0.493377
565	H	0.785507	0.734094	0.603341
566	H	0.738017	0.781585	0.603341
567	C	0.790134	0.564587	0.341435
568	C	0.775894	0.536106	0.382759
569	C	0.747629	0.979576	0.382759
570	C	0.73339	0.951095	0.341435
571	C	0.74779	0.979898	0.633741
572	C	0.775731	0.535781	0.633741
573	N	0.734926	0.954172	0.423468
574	C	0.747843	0.980005	0.463739
575	C	0.77568	0.535677	0.463739
576	N	0.788596	0.56151	0.423468
577	H	0.737414	0.959147	0.493377
578	H	0.786108	0.556535	0.493377
579	H	0.785506	0.55533	0.603341
580	H	0.738016	0.960348	0.603341
581	C	0.955017	0.729467	0.341435
582	C	0.983496	0.743708	0.382759
583	C	0.540027	0.771975	0.382759
584	C	0.568506	0.786215	0.341435
585	C	0.539702	0.771812	0.633741
586	C	0.983821	0.74387	0.633741
587	N	0.56543	0.784677	0.423468
588	C	0.539598	0.77176	0.463739
589	C	0.983926	0.743922	0.463739
590	N	0.958093	0.731005	0.423468
591	H	0.560455	0.782191	0.493377
592	H	0.963068	0.733491	0.493377
593	H	0.964269	0.734094	0.603341
594	H	0.559251	0.781585	0.603341
595	C	0.705518	0.895354	0.673775
596	N	0.651581	0.868023	0.673995
597	C	0.624247	0.814086	0.673772
598	N	0.651579	0.78748	0.673995
599	C	0.705517	0.814082	0.673772
600	N	0.732121	0.868019	0.673995
601	C	0.818005	0.620328	0.673775
602	N	0.871941	0.647659	0.673995
603	C	0.899277	0.701596	0.673775
604	N	0.871943	0.728202	0.673999
605	C	0.818006	0.701596	0.673775
606	N	0.791401	0.647659	0.673999
607	C	0.790138	0.729471	0.674771
608	C	0.775894	0.743708	0.716092
609	C	0.747629	0.771975	0.716092
610	C	0.733387	0.786211	0.674767
611	C	0.747791	0.771812	0.967077
612	C	0.775735	0.74387	0.967077
613	N	0.734924	0.784673	0.7568
614	C	0.747839	0.771756	0.797072
615	C	0.77568	0.743926	0.797072
616	N	0.788597	0.731009	0.756804
617	H	0.737412	0.782187	0.82671
618	H	0.786109	0.733499	0.82671
619	H	0.785507	0.734094	0.936674
620	H	0.738017	0.781585	0.936674
621	C	0.790134	0.564587	0.674771
622	C	0.775894	0.536106	0.716092
623	C	0.747629	0.979576	0.716092
624	C	0.73339	0.951095	0.674771
625	C	0.74779	0.979898	0.967077
626	C	0.775731	0.535781	0.967077
627	N	0.734926	0.954172	0.756804
628	C	0.747843	0.980005	0.797072
629	C	0.77568	0.535677	0.797072
630	N	0.788596	0.56151	0.756804
631	H	0.737414	0.959147	0.82671
632	H	0.786108	0.556535	0.82671
633	H	0.785506	0.55533	0.936674
634	H	0.738016	0.960348	0.936674
635	C	0.955017	0.729467	0.674771
636	C	0.983496	0.743708	0.716092
637	C	0.540027	0.771975	0.716092
638	C	0.568506	0.786215	0.674767
639	C	0.539702	0.771812	0.967073
640	C	0.983821	0.74387	0.967077
641	N	0.56543	0.784677	0.756804
642	C	0.539598	0.77176	0.797072
643	C	0.983926	0.743922	0.797072
644	N	0.958093	0.731005	0.756804
645	H	0.560455	0.782191	0.82671
646	H	0.963068	0.733491	0.82671
647	H	0.964269	0.734094	0.936674
648	H	0.559251	0.781585	0.936674
