data_C360H144N72O144_2018-02-15_10:40:38
#******************************************
#
# CIF file created by Zeo++
# Zeo++ is an open source package to
# analyze microporous materials
#
#*******************************************

_cell_length_a		29.9356   
_cell_length_b		29.9356   
_cell_length_c		29.908   
_cell_angle_alpha		90   
_cell_angle_beta		90   
_cell_angle_gamma		120   

_symmetry_space_group_name_H-M		'P1'
_symmetry_Int_Tables_number		1
_symmetry_cell_setting		Monoclinic

loop_
_symmetry_equiv_pos_as_xyz
'+x,+y,+z'

loop_
_atom_site_label
_atom_site_type_symbol
_atom_site_fract_x
_atom_site_fract_y
_atom_site_fract_z
1	C	0.031729	0.296878	0.025951
2	C	0.027319	0.232602	0.30767
3	O	0.036828	0.2201	0.236133
4	O	0.038146	0.169523	0.281179
5	C	0.031729	0.296878	0.359285
6	C	0.027319	0.232602	0.641005
7	O	0.036828	0.2201	0.569466
8	O	0.038146	0.169523	0.614514
9	C	0.031729	0.296878	0.69262
10	C	0.027319	0.232602	0.974337
11	O	0.036828	0.2201	0.902801
12	O	0.038146	0.169523	0.947846
13	C	0.031728	0.796877	0.025951
14	C	0.027321	0.732603	0.30767
15	O	0.036829	0.720102	0.236132
16	O	0.038147	0.669525	0.281179
17	C	0.031728	0.796877	0.359285
18	C	0.027321	0.732603	0.641002
19	O	0.036829	0.720102	0.569466
20	O	0.038147	0.669525	0.614511
21	C	0.031728	0.796877	0.69262
22	C	0.027321	0.732603	0.974337
23	O	0.036829	0.720102	0.902801
24	O	0.038147	0.669525	0.947846
25	C	0.11339	0.306855	0.997598
26	C	0.142234	0.361507	0.000487
27	C	0.196964	0.390207	0.999237
28	C	0.222564	0.361195	0.998728
29	C	0.196438	0.306565	0.996863
30	C	0.141887	0.280798	0.995552
31	H	0.261864	0.380575	0.000557
32	H	0.12228	0.241672	0.999598
33	H	0.122573	0.38127	0.998949
34	C	0.391227	0.196218	0.006912
35	C	0.362383	0.141565	0.004024
36	C	0.307653	0.112865	0.005263
37	C	0.282052	0.141875	0.005768
38	C	0.308176	0.196505	0.007627
39	C	0.362728	0.222273	0.008935
40	H	0.242753	0.122494	0.003913
41	H	0.382335	0.261398	0.004884
42	H	0.382045	0.121804	0.005573
43	C	0.280966	0.224371	0.005977
44	C	0.296462	0.270897	0.03004
45	C	0.268162	0.296971	0.025699
46	C	0.223652	0.278701	0.331827
47	C	0.208163	0.232177	0.307758
48	H	0.278739	0.328377	0.045806
49	C	0.236444	0.206087	0.312122
50	H	0.225865	0.17469	0.292002
51	N	0.168162	0.214667	0.27551
52	N	0.336458	0.288428	0.062296
53	O	0.185196	0.218355	0.236459
54	O	0.319421	0.284731	0.101348
55	O	0.370595	0.334539	0.055465
56	O	0.134017	0.16856	0.282341
57	C	0.279672	0.057634	0.004799
58	C	0.232616	0.027166	0.028463
59	C	0.206269	0.472622	0.025143
60	C	0.224954	0.445436	0.333053
61	C	0.272003	0.475908	0.309375
62	H	0.174224	0.452379	0.04471
63	C	0.2984	0.030451	0.312759
64	H	0.330376	0.050682	0.293115
65	N	0.289632	0.452599	0.278025
66	N	0.214946	0.050472	0.05978
67	O	0.2874	0.465837	0.238571
68	O	0.217177	0.037277	0.09925
69	O	0.169536	0.040147	0.051692
70	O	0.335035	0.462886	0.286087
71	C	0.446379	0.224076	0.00583
72	C	0.477294	0.270466	0.03019
73	C	0.058239	0.278996	0.332017
74	H	0.052441	0.328354	0.046033
75	C	0.472886	0.206172	0.311912
76	H	0.452168	0.174724	0.291803
77	N	0.050003	0.215711	0.27506
78	N	0.454595	0.287374	0.062766
79	O	0.467756	0.283008	0.101705
80	O	0.466465	0.333562	0.056619
81	C	0.11339	0.306855	0.330932
82	C	0.142234	0.361507	0.33382
83	C	0.196964	0.390207	0.332571
84	C	0.222564	0.361195	0.332062
85	C	0.196438	0.306565	0.330195
86	C	0.141887	0.280798	0.328886
87	H	0.261864	0.380575	0.333891
88	H	0.12228	0.241672	0.33293
89	H	0.122573	0.38127	0.33228
90	C	0.391227	0.196218	0.340246
91	C	0.362383	0.141565	0.337358
92	C	0.307653	0.112865	0.338598
93	C	0.282052	0.141875	0.339103
94	C	0.308176	0.196505	0.340959
95	C	0.362728	0.222273	0.342269
96	H	0.242753	0.122494	0.337247
97	H	0.382335	0.261398	0.338217
98	H	0.382045	0.121804	0.338906
99	C	0.280966	0.224371	0.33931
100	C	0.296462	0.270897	0.363374
101	C	0.268162	0.296971	0.359034
102	C	0.223652	0.278701	0.665159
103	C	0.208163	0.232177	0.641092
104	H	0.278739	0.328377	0.379139
105	C	0.236444	0.206087	0.645455
106	H	0.225865	0.17469	0.625337
107	N	0.168162	0.214667	0.608843
108	N	0.336458	0.288428	0.39563
109	O	0.185196	0.218355	0.569793
110	O	0.319421	0.284731	0.434683
111	O	0.370595	0.334539	0.388799
112	O	0.134017	0.16856	0.615674
113	C	0.279672	0.057634	0.338133
114	C	0.232616	0.027166	0.361796
115	C	0.206269	0.472622	0.358476
116	C	0.224954	0.445436	0.666386
117	C	0.272003	0.475908	0.64271
118	H	0.174224	0.452379	0.378042
119	C	0.2984	0.030451	0.646091
120	H	0.330376	0.050682	0.626447
121	N	0.289632	0.452599	0.611358
122	N	0.214946	0.050472	0.393115
123	O	0.2874	0.465837	0.571903
124	O	0.217177	0.037277	0.432583
125	O	0.169536	0.040147	0.385027
126	O	0.335035	0.462886	0.619422
127	C	0.446379	0.224076	0.339163
128	C	0.477294	0.270466	0.363524
129	C	0.058239	0.278996	0.66535
130	H	0.052441	0.328354	0.379366
131	C	0.472886	0.206172	0.645245
132	H	0.452168	0.174724	0.625136
133	N	0.050003	0.215711	0.608392
134	N	0.454595	0.287374	0.396101
135	O	0.467756	0.283008	0.435037
136	O	0.466465	0.333562	0.389952
137	C	0.11339	0.306855	0.664266
138	C	0.142234	0.361507	0.667155
139	C	0.196964	0.390207	0.665905
140	C	0.222564	0.361195	0.665397
141	C	0.196438	0.306565	0.663528
142	C	0.141887	0.280798	0.66222
143	H	0.261864	0.380575	0.667226
144	H	0.12228	0.241672	0.666263
145	H	0.122573	0.38127	0.665614
146	C	0.391227	0.196218	0.673578
147	C	0.362383	0.141565	0.670693
148	C	0.307653	0.112865	0.67193
149	C	0.282052	0.141875	0.672435
150	C	0.308176	0.196505	0.674294
151	C	0.362728	0.222273	0.675601
152	H	0.242753	0.122494	0.670579
153	H	0.382335	0.261398	0.671552
154	H	0.382045	0.121804	0.672241
155	C	0.280966	0.224371	0.672645
156	C	0.296462	0.270897	0.696709
157	C	0.268162	0.296971	0.692366
158	C	0.223652	0.278701	0.998494
159	C	0.208163	0.232177	0.974427
160	H	0.278739	0.328377	0.712474
161	C	0.236444	0.206087	0.978787
162	H	0.225865	0.17469	0.958669
163	N	0.168162	0.214667	0.942178
164	N	0.336458	0.288428	0.728965
165	O	0.185196	0.218355	0.903125
166	O	0.319421	0.284731	0.768015
167	O	0.370595	0.334539	0.722134
168	O	0.134017	0.16856	0.949009
169	C	0.279672	0.057634	0.671465
170	C	0.232616	0.027166	0.695131
171	C	0.206269	0.472622	0.691811
172	C	0.224954	0.445436	0.999722
173	C	0.272003	0.475908	0.976042
174	H	0.174224	0.452379	0.711378
175	C	0.2984	0.030451	0.979426
176	H	0.330376	0.050682	0.959782
177	N	0.289632	0.452599	0.944693
178	N	0.214946	0.050472	0.726447
179	O	0.2874	0.465837	0.905239
180	O	0.217177	0.037277	0.765918
181	O	0.169536	0.040147	0.718359
182	O	0.335035	0.462886	0.952754
183	C	0.446379	0.224076	0.672498
184	C	0.477294	0.270466	0.696856
185	C	0.058239	0.278996	0.998685
186	H	0.052441	0.328354	0.712702
187	C	0.472886	0.206172	0.97858
188	H	0.452168	0.174724	0.958468
189	N	0.050003	0.215711	0.941727
190	N	0.454595	0.287374	0.729433
191	O	0.467756	0.283008	0.768372
192	O	0.466465	0.333562	0.723287
193	C	0.113391	0.806856	0.997598
194	C	0.142234	0.861506	0.000487
195	C	0.196963	0.890204	0.99924
196	C	0.222563	0.861193	0.998732
197	C	0.196439	0.806567	0.996863
198	C	0.141888	0.7808	0.995555
199	H	0.261865	0.880576	0.000561
200	H	0.12228	0.741672	0.999598
201	H	0.122574	0.881271	0.998949
202	C	0.391228	0.696217	0.006911
203	C	0.362384	0.641567	0.004023
204	C	0.307653	0.612865	0.005262
205	C	0.282052	0.641876	0.005767
206	C	0.308177	0.696507	0.007626
207	C	0.362728	0.722273	0.008935
208	H	0.242753	0.622493	0.003912
209	H	0.382335	0.761398	0.004884
210	H	0.382044	0.621803	0.005572
211	C	0.280966	0.724372	0.005977
212	C	0.296463	0.770898	0.030041
213	C	0.268161	0.79697	0.0257
214	C	0.223653	0.778702	0.331827
215	C	0.208164	0.732179	0.307758
216	H	0.278738	0.828376	0.045807
217	C	0.236445	0.706088	0.312121
218	H	0.225866	0.67469	0.292001
219	N	0.168165	0.714671	0.275509
220	N	0.336457	0.788426	0.062297
221	O	0.185198	0.718358	0.236458
222	O	0.319421	0.78473	0.101349
223	O	0.370594	0.834536	0.055467
224	O	0.134018	0.668561	0.282339
225	C	0.279673	0.557637	0.004798
226	C	0.232617	0.527168	0.028461
227	C	0.20627	0.972623	0.025144
228	C	0.224955	0.945437	0.333054
229	C	0.272001	0.975905	0.309377
230	H	0.174225	0.95238	0.044711
231	C	0.2984	0.53045	0.312757
232	H	0.330375	0.550682	0.293113
233	N	0.289633	0.9526	0.278027
234	N	0.214947	0.550474	0.059779
235	O	0.287399	0.965834	0.238572
236	O	0.217178	0.537278	0.099249
237	O	0.169537	0.540148	0.051691
238	O	0.335036	0.962887	0.286089
239	C	0.44638	0.724078	0.00583
240	C	0.477294	0.770466	0.03019
241	C	0.058239	0.778995	0.332017
242	H	0.05244	0.828353	0.046034
243	C	0.472886	0.706173	0.311912
244	H	0.452169	0.674724	0.291802
245	N	0.050003	0.715712	0.275059
246	N	0.454594	0.787373	0.062767
247	O	0.467755	0.783006	0.101705
248	O	0.466464	0.83356	0.05662
249	C	0.113391	0.806856	0.330932
250	C	0.142234	0.861506	0.333821
251	C	0.196963	0.890204	0.332572
252	C	0.222563	0.861193	0.332063
253	C	0.196439	0.806567	0.330196
254	C	0.141888	0.7808	0.328887
255	H	0.261865	0.880576	0.333893
256	H	0.12228	0.741672	0.33293
257	H	0.122574	0.881271	0.332281
258	C	0.391228	0.696217	0.340246
259	C	0.362384	0.641567	0.337358
260	C	0.307653	0.612865	0.338595
261	C	0.282052	0.641876	0.3391
262	C	0.308177	0.696507	0.340959
263	C	0.362728	0.722273	0.342269
264	H	0.242753	0.622493	0.337244
265	H	0.382335	0.761398	0.338217
266	H	0.382044	0.621803	0.338906
267	C	0.280966	0.724372	0.33931
268	C	0.296463	0.770898	0.363374
269	C	0.268161	0.79697	0.359034
270	C	0.223653	0.778702	0.665159
271	C	0.208164	0.732179	0.641092
272	H	0.278738	0.828376	0.379142
273	C	0.236445	0.706088	0.645455
274	H	0.225866	0.67469	0.625334
275	N	0.168165	0.714671	0.608843
276	N	0.336457	0.788426	0.39563
277	O	0.185198	0.718358	0.56979
278	O	0.319421	0.78473	0.434683
279	O	0.370594	0.834536	0.388802
280	O	0.134018	0.668561	0.615674
281	C	0.279673	0.557637	0.33813
282	C	0.232617	0.527168	0.361796
283	C	0.20627	0.972623	0.358479
284	C	0.224955	0.945437	0.666386
285	C	0.272001	0.975905	0.64271
286	H	0.174225	0.95238	0.378046
287	C	0.2984	0.53045	0.646091
288	H	0.330375	0.550682	0.626447
289	N	0.289633	0.9526	0.611361
290	N	0.214947	0.550474	0.393112
291	O	0.287399	0.965834	0.571907
292	O	0.217178	0.537278	0.432583
293	O	0.169537	0.540148	0.385024
294	O	0.335036	0.962887	0.619422
295	C	0.44638	0.724078	0.339163
296	C	0.477294	0.770466	0.363524
297	C	0.058239	0.778995	0.66535
298	H	0.05244	0.828353	0.379366
299	C	0.472886	0.706173	0.645245
300	H	0.452169	0.674724	0.625136
301	N	0.050003	0.715712	0.608392
302	N	0.454594	0.787373	0.396101
303	O	0.467755	0.783006	0.43504
304	O	0.466464	0.83356	0.389952
305	C	0.113391	0.806856	0.664266
306	C	0.142234	0.861506	0.667155
307	C	0.196963	0.890204	0.665905
308	C	0.222563	0.861193	0.665397
309	C	0.196439	0.806567	0.663531
310	C	0.141888	0.7808	0.66222
311	H	0.261865	0.880576	0.667226
312	H	0.12228	0.741672	0.666263
313	H	0.122574	0.881271	0.665614
314	C	0.391228	0.696217	0.673578
315	C	0.362384	0.641567	0.670689
316	C	0.307653	0.612865	0.67193
317	C	0.282052	0.641876	0.672435
318	C	0.308177	0.696507	0.674294
319	C	0.362728	0.722273	0.675601
320	H	0.242753	0.622493	0.670579
321	H	0.382335	0.761398	0.671552
322	H	0.382044	0.621803	0.672238
323	C	0.280966	0.724372	0.672645
324	C	0.296463	0.770898	0.696709
325	C	0.268161	0.79697	0.692366
326	C	0.223653	0.778702	0.998494
327	C	0.208164	0.732179	0.974424
328	H	0.278738	0.828376	0.712474
329	C	0.236445	0.706088	0.978787
330	H	0.225866	0.67469	0.958669
331	N	0.168165	0.714671	0.942175
332	N	0.336457	0.788426	0.728965
333	O	0.185198	0.718358	0.903125
334	O	0.319421	0.78473	0.768018
335	O	0.370594	0.834536	0.722134
336	O	0.134018	0.668561	0.949006
337	C	0.279673	0.557637	0.671465
338	C	0.232617	0.527168	0.695128
339	C	0.20627	0.972623	0.691811
340	C	0.224955	0.945437	0.999722
341	C	0.272001	0.975905	0.976046
342	H	0.174225	0.95238	0.711378
343	C	0.2984	0.53045	0.979426
344	H	0.330375	0.550682	0.959779
345	N	0.289633	0.9526	0.944693
346	N	0.214947	0.550474	0.726447
347	O	0.287399	0.965834	0.905239
348	O	0.217178	0.537278	0.765915
349	O	0.169537	0.540148	0.718359
350	O	0.335036	0.962887	0.952758
351	C	0.44638	0.724078	0.672498
352	C	0.477294	0.770466	0.696856
353	C	0.058239	0.778995	0.998685
354	H	0.05244	0.828353	0.712702
355	C	0.472886	0.706173	0.97858
356	H	0.452169	0.674724	0.958468
357	N	0.050003	0.715712	0.941727
358	N	0.454594	0.787373	0.729433
359	O	0.467755	0.783006	0.768372
360	O	0.466464	0.83356	0.723287
361	C	0.613388	0.306855	0.997598
362	C	0.642234	0.361507	0.000487
363	C	0.696964	0.390207	0.999237
364	C	0.722564	0.361195	0.998728
365	C	0.696438	0.306565	0.996863
366	C	0.641886	0.280798	0.995552
367	H	0.761865	0.380575	0.000557
368	H	0.622279	0.241672	0.999598
369	H	0.622572	0.38127	0.998949
370	C	0.891228	0.196218	0.006912
371	C	0.862382	0.141565	0.004024
372	C	0.807652	0.112865	0.005263
373	C	0.78205	0.141875	0.005768
374	C	0.808177	0.196505	0.007627
375	C	0.862727	0.222273	0.008935
376	H	0.742753	0.122494	0.003913
377	H	0.882336	0.261398	0.004884
378	H	0.882045	0.121804	0.005573
379	C	0.780965	0.224371	0.005977
380	C	0.796461	0.270897	0.03004
381	C	0.768163	0.296971	0.025699
382	C	0.723651	0.278701	0.331827
383	C	0.708163	0.232177	0.307758
384	H	0.778738	0.328377	0.045806
385	C	0.736443	0.206087	0.312122
386	H	0.725866	0.17469	0.292002
387	N	0.668161	0.214667	0.27551
388	N	0.836457	0.288428	0.062296
389	O	0.685194	0.218355	0.236459
390	O	0.819422	0.284731	0.101348
391	O	0.870596	0.334539	0.055465
392	O	0.634017	0.16856	0.282341
393	C	0.779672	0.057634	0.004799
394	C	0.732616	0.027166	0.028463
395	C	0.70627	0.472622	0.025143
396	C	0.724953	0.445436	0.333053
397	C	0.772001	0.475908	0.309375
398	H	0.674225	0.452379	0.04471
399	C	0.7984	0.030451	0.312759
400	H	0.830376	0.050682	0.293115
401	N	0.789632	0.452599	0.278025
402	N	0.714947	0.050472	0.05978
403	O	0.787399	0.465837	0.238571
404	O	0.717178	0.037277	0.09925
405	O	0.669538	0.040147	0.051692
406	O	0.835035	0.462886	0.286087
407	C	0.946379	0.224076	0.00583
408	C	0.977294	0.270466	0.03019
409	C	0.531729	0.296878	0.025951
410	C	0.55824	0.278996	0.332017
411	C	0.52732	0.232602	0.30767
412	H	0.552441	0.328354	0.046033
413	C	0.972883	0.206172	0.311912
414	H	0.952168	0.174724	0.291803
415	N	0.550001	0.215711	0.27506
416	N	0.954595	0.287374	0.062766
417	O	0.536826	0.2201	0.236133
418	O	0.967754	0.283008	0.101705
419	O	0.966464	0.333562	0.056619
420	O	0.538145	0.169523	0.281179
421	C	0.613388	0.306855	0.330932
422	C	0.642234	0.361507	0.33382
423	C	0.696964	0.390207	0.332571
424	C	0.722564	0.361195	0.332062
425	C	0.696438	0.306565	0.330195
426	C	0.641886	0.280798	0.328886
427	H	0.761865	0.380575	0.333891
428	H	0.622279	0.241672	0.33293
429	H	0.622572	0.38127	0.33228
430	C	0.891228	0.196218	0.340246
431	C	0.862382	0.141565	0.337358
432	C	0.807652	0.112865	0.338598
433	C	0.78205	0.141875	0.339103
434	C	0.808177	0.196505	0.340959
435	C	0.862727	0.222273	0.342269
436	H	0.742753	0.122494	0.337247
437	H	0.882336	0.261398	0.338217
438	H	0.882045	0.121804	0.338906
439	C	0.780965	0.224371	0.33931
440	C	0.796461	0.270897	0.363374
441	C	0.768163	0.296971	0.359034
442	C	0.723651	0.278701	0.665159
443	C	0.708163	0.232177	0.641092
444	H	0.778738	0.328377	0.379139
445	C	0.736443	0.206087	0.645455
446	H	0.725866	0.17469	0.625337
447	N	0.668161	0.214667	0.608843
448	N	0.836457	0.288428	0.39563
449	O	0.685194	0.218355	0.569793
450	O	0.819422	0.284731	0.434683
451	O	0.870596	0.334539	0.388799
452	O	0.634017	0.16856	0.615674
453	C	0.779672	0.057634	0.338133
454	C	0.732616	0.027166	0.361796
455	C	0.70627	0.472622	0.358476
456	C	0.724953	0.445436	0.666386
457	C	0.772001	0.475908	0.64271
458	H	0.674225	0.452379	0.378042
459	C	0.7984	0.030451	0.646091
460	H	0.830376	0.050682	0.626447
461	N	0.789632	0.452599	0.611358
462	N	0.714947	0.050472	0.393115
463	O	0.787399	0.465837	0.571903
464	O	0.717178	0.037277	0.432583
465	O	0.669538	0.040147	0.385027
466	O	0.835035	0.462886	0.619422
467	C	0.946379	0.224076	0.339163
468	C	0.977294	0.270466	0.363524
469	C	0.531729	0.296878	0.359285
470	C	0.55824	0.278996	0.66535
471	C	0.52732	0.232602	0.641005
472	H	0.552441	0.328354	0.379366
473	C	0.972883	0.206172	0.645245
474	H	0.952168	0.174724	0.625136
475	N	0.550001	0.215711	0.608392
476	N	0.954595	0.287374	0.396101
477	O	0.536826	0.2201	0.569466
478	O	0.967754	0.283008	0.435037
479	O	0.966464	0.333562	0.389952
480	O	0.538145	0.169523	0.614514
481	C	0.613388	0.306855	0.664266
482	C	0.642234	0.361507	0.667155
483	C	0.696964	0.390207	0.665905
484	C	0.722564	0.361195	0.665397
485	C	0.696438	0.306565	0.663528
486	C	0.641886	0.280798	0.66222
487	H	0.761865	0.380575	0.667226
488	H	0.622279	0.241672	0.666263
489	H	0.622572	0.38127	0.665614
490	C	0.891228	0.196218	0.673578
491	C	0.862382	0.141565	0.670693
492	C	0.807652	0.112865	0.67193
493	C	0.78205	0.141875	0.672435
494	C	0.808177	0.196505	0.674294
495	C	0.862727	0.222273	0.675601
496	H	0.742753	0.122494	0.670579
497	H	0.882336	0.261398	0.671552
498	H	0.882045	0.121804	0.672241
499	C	0.780965	0.224371	0.672645
500	C	0.796461	0.270897	0.696709
501	C	0.768163	0.296971	0.692366
502	C	0.723651	0.278701	0.998494
503	C	0.708163	0.232177	0.974427
504	H	0.778738	0.328377	0.712474
505	C	0.736443	0.206087	0.978787
506	H	0.725866	0.17469	0.958669
507	N	0.668161	0.214667	0.942178
508	N	0.836457	0.288428	0.728965
509	O	0.685194	0.218355	0.903125
510	O	0.819422	0.284731	0.768015
511	O	0.870596	0.334539	0.722134
512	O	0.634017	0.16856	0.949009
513	C	0.779672	0.057634	0.671465
514	C	0.732616	0.027166	0.695131
515	C	0.70627	0.472622	0.691811
516	C	0.724953	0.445436	0.999722
517	C	0.772001	0.475908	0.976042
518	H	0.674225	0.452379	0.711378
519	C	0.7984	0.030451	0.979426
520	H	0.830376	0.050682	0.959782
521	N	0.789632	0.452599	0.944693
522	N	0.714947	0.050472	0.726447
523	O	0.787399	0.465837	0.905239
524	O	0.717178	0.037277	0.765918
525	O	0.669538	0.040147	0.718359
526	O	0.835035	0.462886	0.952754
527	C	0.946379	0.224076	0.672498
528	C	0.977294	0.270466	0.696856
529	C	0.531729	0.296878	0.69262
530	C	0.55824	0.278996	0.998685
531	C	0.52732	0.232602	0.974337
532	H	0.552441	0.328354	0.712702
533	C	0.972883	0.206172	0.97858
534	H	0.952168	0.174724	0.958468
535	N	0.550001	0.215711	0.941727
536	N	0.954595	0.287374	0.729433
537	O	0.536826	0.2201	0.902801
538	O	0.967754	0.283008	0.768372
539	O	0.966464	0.333562	0.723287
540	O	0.538145	0.169523	0.947846
541	C	0.61339	0.806856	0.997598
542	C	0.642234	0.861506	0.000487
543	C	0.696962	0.890204	0.99924
544	C	0.722563	0.861193	0.998732
545	C	0.696439	0.806567	0.996863
546	C	0.641888	0.7808	0.995555
547	H	0.761864	0.880576	0.000561
548	H	0.62228	0.741672	0.999598
549	H	0.622574	0.881271	0.998949
550	C	0.891228	0.696217	0.006911
551	C	0.862383	0.641567	0.004023
552	C	0.807652	0.612865	0.005262
553	C	0.782051	0.641876	0.005767
554	C	0.808177	0.696507	0.007626
555	C	0.862727	0.722273	0.008935
556	H	0.742753	0.622493	0.003912
557	H	0.882336	0.761398	0.004884
558	H	0.882044	0.621803	0.005572
559	C	0.780965	0.724372	0.005977
560	C	0.796461	0.770898	0.030041
561	C	0.768162	0.79697	0.0257
562	C	0.723652	0.778702	0.331827
563	C	0.708164	0.732179	0.307758
564	H	0.778737	0.828376	0.045807
565	C	0.736444	0.706088	0.312121
566	H	0.725866	0.67469	0.292001
567	N	0.668164	0.714671	0.275509
568	N	0.836456	0.788426	0.062297
569	O	0.685198	0.718358	0.236458
570	O	0.819422	0.78473	0.101349
571	O	0.870594	0.834536	0.055467
572	O	0.634018	0.668561	0.282339
573	C	0.779673	0.557637	0.004798
574	C	0.732617	0.527168	0.028461
575	C	0.70627	0.972623	0.025144
576	C	0.724954	0.945437	0.333054
577	C	0.772001	0.975905	0.309377
578	H	0.674225	0.95238	0.044711
579	C	0.7984	0.53045	0.312757
580	H	0.830376	0.550682	0.293113
581	N	0.789633	0.9526	0.278027
582	N	0.714947	0.550474	0.059779
583	O	0.787399	0.965834	0.238572
584	O	0.717178	0.537278	0.099249
585	O	0.669538	0.540148	0.051691
586	O	0.835036	0.962887	0.286089
587	C	0.94638	0.724078	0.00583
588	C	0.977294	0.770466	0.03019
589	C	0.531728	0.796877	0.025951
590	C	0.558239	0.778995	0.332017
591	C	0.52732	0.732603	0.30767
592	H	0.55244	0.828353	0.046034
593	C	0.972884	0.706173	0.311912
594	H	0.952169	0.674724	0.291802
595	N	0.550003	0.715712	0.275059
596	N	0.954594	0.787373	0.062767
597	O	0.536829	0.720102	0.236132
598	O	0.967753	0.783006	0.101705
599	O	0.966463	0.83356	0.05662
600	O	0.538147	0.669525	0.281179
601	C	0.61339	0.806856	0.330932
602	C	0.642234	0.861506	0.333821
603	C	0.696962	0.890204	0.332572
604	C	0.722563	0.861193	0.332063
605	C	0.696439	0.806567	0.330196
606	C	0.641888	0.7808	0.328887
607	H	0.761864	0.880576	0.333893
608	H	0.62228	0.741672	0.33293
609	H	0.622574	0.881271	0.332281
610	C	0.891228	0.696217	0.340246
611	C	0.862383	0.641567	0.337358
612	C	0.807652	0.612865	0.338595
613	C	0.782051	0.641876	0.3391
614	C	0.808177	0.696507	0.340959
615	C	0.862727	0.722273	0.342269
616	H	0.742753	0.622493	0.337244
617	H	0.882336	0.761398	0.338217
618	H	0.882044	0.621803	0.338906
619	C	0.780965	0.724372	0.33931
620	C	0.796461	0.770898	0.363374
621	C	0.768162	0.79697	0.359034
622	C	0.723652	0.778702	0.665159
623	C	0.708164	0.732179	0.641092
624	H	0.778737	0.828376	0.379142
625	C	0.736444	0.706088	0.645455
626	H	0.725866	0.67469	0.625334
627	N	0.668164	0.714671	0.608843
628	N	0.836456	0.788426	0.39563
629	O	0.685198	0.718358	0.56979
630	O	0.819422	0.78473	0.434683
631	O	0.870594	0.834536	0.388802
632	O	0.634018	0.668561	0.615674
633	C	0.779673	0.557637	0.33813
634	C	0.732617	0.527168	0.361796
635	C	0.70627	0.972623	0.358479
636	C	0.724954	0.945437	0.666386
637	C	0.772001	0.975905	0.64271
638	H	0.674225	0.95238	0.378046
639	C	0.7984	0.53045	0.646091
640	H	0.830376	0.550682	0.626447
641	N	0.789633	0.9526	0.611361
642	N	0.714947	0.550474	0.393112
643	O	0.787399	0.965834	0.571907
644	O	0.717178	0.537278	0.432583
645	O	0.669538	0.540148	0.385024
646	O	0.835036	0.962887	0.619422
647	C	0.94638	0.724078	0.339163
648	C	0.977294	0.770466	0.363524
649	C	0.531728	0.796877	0.359285
650	C	0.558239	0.778995	0.66535
651	C	0.52732	0.732603	0.641002
652	H	0.55244	0.828353	0.379366
653	C	0.972884	0.706173	0.645245
654	H	0.952169	0.674724	0.625136
655	N	0.550003	0.715712	0.608392
656	N	0.954594	0.787373	0.396101
657	O	0.536829	0.720102	0.569466
658	O	0.967753	0.783006	0.43504
659	O	0.966463	0.83356	0.389952
660	O	0.538147	0.669525	0.614511
661	C	0.61339	0.806856	0.664266
662	C	0.642234	0.861506	0.667155
663	C	0.696962	0.890204	0.665905
664	C	0.722563	0.861193	0.665397
665	C	0.696439	0.806567	0.663531
666	C	0.641888	0.7808	0.66222
667	H	0.761864	0.880576	0.667226
668	H	0.62228	0.741672	0.666263
669	H	0.622574	0.881271	0.665614
670	C	0.891228	0.696217	0.673578
671	C	0.862383	0.641567	0.670689
672	C	0.807652	0.612865	0.67193
673	C	0.782051	0.641876	0.672435
674	C	0.808177	0.696507	0.674294
675	C	0.862727	0.722273	0.675601
676	H	0.742753	0.622493	0.670579
677	H	0.882336	0.761398	0.671552
678	H	0.882044	0.621803	0.672238
679	C	0.780965	0.724372	0.672645
680	C	0.796461	0.770898	0.696709
681	C	0.768162	0.79697	0.692366
682	C	0.723652	0.778702	0.998494
683	C	0.708164	0.732179	0.974424
684	H	0.778737	0.828376	0.712474
685	C	0.736444	0.706088	0.978787
686	H	0.725866	0.67469	0.958669
687	N	0.668164	0.714671	0.942175
688	N	0.836456	0.788426	0.728965
689	O	0.685198	0.718358	0.903125
690	O	0.819422	0.78473	0.768018
691	O	0.870594	0.834536	0.722134
692	O	0.634018	0.668561	0.949006
693	C	0.779673	0.557637	0.671465
694	C	0.732617	0.527168	0.695128
695	C	0.70627	0.972623	0.691811
696	C	0.724954	0.945437	0.999722
697	C	0.772001	0.975905	0.976046
698	H	0.674225	0.95238	0.711378
699	C	0.7984	0.53045	0.979426
700	H	0.830376	0.550682	0.959779
701	N	0.789633	0.9526	0.944693
702	N	0.714947	0.550474	0.726447
703	O	0.787399	0.965834	0.905239
704	O	0.717178	0.537278	0.765915
705	O	0.669538	0.540148	0.718359
706	O	0.835036	0.962887	0.952758
707	C	0.94638	0.724078	0.672498
708	C	0.977294	0.770466	0.696856
709	C	0.531728	0.796877	0.69262
710	C	0.558239	0.778995	0.998685
711	C	0.52732	0.732603	0.974337
712	H	0.55244	0.828353	0.712702
713	C	0.972884	0.706173	0.97858
714	H	0.952169	0.674724	0.958468
715	N	0.550003	0.715712	0.941727
716	N	0.954594	0.787373	0.729433
717	O	0.536829	0.720102	0.902801
718	O	0.967753	0.783006	0.768372
719	O	0.966463	0.83356	0.723287
720	O	0.538147	0.669525	0.947846
