data_C174H114N36_2018-02-15_10:47:48
#******************************************
#
# CIF file created by Zeo++
# Zeo++ is an open source package to
# analyze microporous materials
#
#*******************************************

_cell_length_a		25.5564   
_cell_length_b		25.5562   
_cell_length_c		29.1646   
_cell_angle_alpha		90   
_cell_angle_beta		90   
_cell_angle_gamma		90.0373   

_symmetry_space_group_name_H-M		'P1'
_symmetry_Int_Tables_number		1
_symmetry_cell_setting		Monoclinic

loop_
_symmetry_equiv_pos_as_xyz
'+x,+y,+z'

loop_
_atom_site_label
_atom_site_type_symbol
_atom_site_fract_x
_atom_site_fract_y
_atom_site_fract_z
1	C	0.785484	0.020419	0.041071
2	C	0.730618	0.020996	0.035567
3	C	0.017496	0.241053	0.041414
4	C	0.01833	0.295919	0.035905
5	C	0.292899	0.012479	0.040812
6	C	0.23799	0.007568	0.043392
7	C	0.005307	0.788799	0.042797
8	C	0.00985	0.733854	0.040335
9	H	0.002769	0.712192	0.069209
10	H	0.994797	0.805652	0.073274
11	H	0.221274	0.996874	0.073883
12	H	0.314683	0.005447	0.069618
13	H	0.024267	0.22548	0.073199
14	H	0.02586	0.318691	0.064005
15	H	0.70785	0.0291	0.063542
16	H	0.801043	0.027952	0.072734
17	C	0.999985	0.541654	0.052085
18	N	0.001614	0.488508	0.052856
19	H	0.994367	0.561179	0.082288
20	C	0.484982	0.002916	0.052222
21	N	0.538128	0.00445	0.052881
22	H	0.465512	0.997637	0.082502
23	N	0.00853	0.407702	0.017266
24	N	0.618864	0.01089	0.017107
25	C	0.917794	0.876743	0.338977
26	C	0.878826	0.914162	0.339414
27	C	0.902285	0.963532	0.341337
28	N	0.954539	0.953977	0.342899
29	C	0.966174	0.902142	0.341162
30	C	0.01574	0.876535	0.340729
31	C	0.064768	0.903061	0.341419
32	N	0.07397	0.95524	0.341915
33	C	0.125751	0.966557	0.341547
34	C	0.151483	0.918388	0.340812
35	C	0.114065	0.879419	0.341283
36	C	0.15013	0.016613	0.341205
37	C	0.122354	0.065016	0.342052
38	N	0.070059	0.074452	0.342665
39	C	0.058429	0.126308	0.342281
40	C	0.106795	0.15184	0.342125
41	C	0.145758	0.114478	0.342429
42	C	0.008904	0.151924	0.341361
43	C	0.959897	0.125511	0.341545
44	N	0.95071	0.073356	0.342763
45	C	0.898967	0.062083	0.341744
46	C	0.873302	0.1103	0.339946
47	C	0.910727	0.149274	0.340091
48	C	0.874628	0.011994	0.341151
49	C	0.818814	0.010554	0.336687
50	C	0.707316	0.011673	0.325544
51	C	0.741125	0.001515	0.288048
52	C	0.795846	0.001104	0.293426
53	C	0.008306	0.207744	0.336881
54	C	0.009826	0.319227	0.325757
55	C	0.000312	0.285426	0.288119
56	C	0.999662	0.23071	0.293498
57	C	0.206129	0.018539	0.338248
58	C	0.230756	0.033911	0.296964
59	C	0.285492	0.039725	0.29463
60	C	0.317427	0.029171	0.333165
61	C	0.016733	0.820518	0.337652
62	C	0.031953	0.79569	0.296423
63	C	0.026621	0.709147	0.332804
64	C	0.037376	0.740917	0.294199
65	H	0.05004	0.724486	0.264146
66	H	0.040961	0.817559	0.268081
67	H	0.911112	0.837382	0.336901
68	H	0.839726	0.905914	0.337887
69	H	0.98055	0.981062	0.344699
70	H	0.044035	0.047325	0.341976
71	H	0.122266	0.84029	0.341046
72	H	0.190926	0.911904	0.34014
73	H	0.208776	0.042621	0.268624
74	H	0.301789	0.052319	0.264491
75	H	0.184847	0.122927	0.342463
76	H	0.11352	0.191259	0.341669
77	H	0.833899	0.116794	0.338229
78	H	0.902727	0.188421	0.338732
79	H	0.993159	0.20766	0.265344
80	H	0.994029	0.300351	0.255989
81	H	0.818905	0.99428	0.265344
82	H	0.7262	0.99471	0.255996
83	C	0.011669	0.373245	0.318426
84	C	0.370883	0.038584	0.330767
85	C	0.036058	0.655693	0.330637
86	C	0.653295	0.013395	0.318199
87	H	0.014629	0.385834	0.286198
88	H	0.382931	0.071355	0.31557
89	H	0.068941	0.643656	0.315647
90	H	0.640688	0.015738	0.28594
91	C	0.012665	0.538942	0.303487
92	C	0.008869	0.459744	0.347613
93	N	0.01391	0.485851	0.307201
94	C	0.016286	0.559868	0.256294
95	H	0.009095	0.601788	0.254467
96	H	0.987311	0.540621	0.234565
97	H	0.055207	0.551933	0.242528
98	N	0.00853	0.407702	0.3506
99	C	0.487536	0.014762	0.303522
100	C	0.566822	0.011235	0.347527
101	N	0.540642	0.015925	0.307123
102	C	0.466498	0.017896	0.256343
103	H	0.42454	0.010824	0.254668
104	H	0.485552	0.988606	0.234836
105	H	0.474568	0.056628	0.242211
106	N	0.618864	0.01089	0.350438
107	C	0.785484	0.020419	0.374402
108	C	0.730618	0.020996	0.368899
109	C	0.017496	0.241053	0.374749
110	C	0.01833	0.295919	0.369239
111	C	0.292899	0.012479	0.374145
112	C	0.23799	0.007568	0.376727
113	C	0.005307	0.788799	0.376131
114	C	0.00985	0.733854	0.373669
115	C	0.006112	0.569424	0.343903
116	C	0.999985	0.541654	0.385419
117	N	0.001614	0.488508	0.386191
118	N	0.00298	0.621572	0.345312
119	C	0.457134	0.008668	0.344044
120	C	0.484982	0.002916	0.385556
121	N	0.538128	0.00445	0.386215
122	N	0.404992	0.005608	0.345573
123	C	0.008869	0.459744	0.014281
124	C	0.566822	0.011235	0.014195
125	H	0.002769	0.712192	0.402543
126	H	0.314683	0.005447	0.402951
127	H	0.02586	0.318691	0.397338
128	H	0.70785	0.0291	0.396875
129	C	0.006112	0.569424	0.010567
130	N	0.00298	0.621572	0.01198
131	C	0.457134	0.008668	0.010708
132	N	0.404992	0.005608	0.012241
133	C	0.917794	0.876743	0.672312
134	C	0.878826	0.914162	0.672747
135	C	0.902285	0.963532	0.674671
136	N	0.954539	0.953977	0.676234
137	C	0.966174	0.902142	0.674496
138	C	0.01574	0.876535	0.674064
139	C	0.064768	0.903061	0.674753
140	N	0.07397	0.95524	0.67525
141	C	0.125751	0.966557	0.67488
142	C	0.151483	0.918388	0.674146
143	C	0.114065	0.879419	0.674616
144	C	0.15013	0.016613	0.674537
145	C	0.122354	0.065016	0.675384
146	N	0.070059	0.074452	0.675997
147	C	0.058429	0.126308	0.675613
148	C	0.106795	0.15184	0.675459
149	C	0.145758	0.114478	0.675761
150	C	0.008904	0.151924	0.674695
151	C	0.959897	0.125511	0.67488
152	N	0.95071	0.073356	0.676097
153	C	0.898967	0.062083	0.675079
154	C	0.873302	0.1103	0.673278
155	C	0.910727	0.149274	0.673426
156	C	0.874628	0.011994	0.674485
157	C	0.818814	0.010554	0.670021
158	C	0.707316	0.011673	0.658877
159	C	0.741125	0.001515	0.62138
160	C	0.795846	0.001104	0.62676
161	C	0.008306	0.207744	0.670213
162	C	0.009826	0.319227	0.65909
163	C	0.000312	0.285426	0.621452
164	C	0.999662	0.23071	0.626832
165	C	0.206129	0.018539	0.671581
166	C	0.230756	0.033911	0.630298
167	C	0.285492	0.039725	0.627963
168	C	0.317427	0.029171	0.6665
169	C	0.016733	0.820518	0.670985
170	C	0.031953	0.79569	0.629757
171	C	0.026621	0.709147	0.666136
172	C	0.037376	0.740917	0.627531
173	H	0.05004	0.724486	0.597478
174	H	0.040961	0.817559	0.601414
175	H	0.994797	0.805652	0.406606
176	H	0.911112	0.837382	0.670234
177	H	0.839726	0.905914	0.671221
178	H	0.98055	0.981062	0.678031
179	H	0.044035	0.047325	0.675308
180	H	0.122266	0.84029	0.674379
181	H	0.190926	0.911904	0.673474
182	H	0.208776	0.042621	0.601956
183	H	0.301789	0.052319	0.597824
184	H	0.221274	0.996874	0.407216
185	H	0.184847	0.122927	0.675795
186	H	0.11352	0.191259	0.675003
187	H	0.833899	0.116794	0.671564
188	H	0.902727	0.188421	0.672065
189	H	0.024267	0.22548	0.406534
190	H	0.993159	0.20766	0.598678
191	H	0.994029	0.300351	0.589324
192	H	0.818905	0.99428	0.598678
193	H	0.7262	0.99471	0.589331
194	H	0.801043	0.027952	0.406068
195	C	0.011669	0.373245	0.651759
196	C	0.370883	0.038584	0.6641
197	C	0.036058	0.655693	0.663969
198	C	0.653295	0.013395	0.651533
199	H	0.014629	0.385834	0.619532
200	H	0.382931	0.071355	0.648903
201	H	0.068941	0.643656	0.648982
202	H	0.640688	0.015738	0.619275
203	C	0.012665	0.538942	0.63682
204	C	0.008869	0.459744	0.680949
205	N	0.01391	0.485851	0.640533
206	H	0.994367	0.561179	0.41562
207	C	0.016286	0.559868	0.589629
208	H	0.009095	0.601788	0.587802
209	H	0.987311	0.540621	0.567897
210	H	0.055207	0.551933	0.575862
211	N	0.00853	0.407702	0.683932
212	C	0.487536	0.014762	0.636858
213	C	0.566822	0.011235	0.68086
214	N	0.540642	0.015925	0.640454
215	H	0.465512	0.997637	0.415836
216	C	0.466498	0.017896	0.589677
217	H	0.42454	0.010824	0.588
218	H	0.485552	0.988606	0.568168
219	H	0.474568	0.056628	0.575544
220	N	0.618864	0.01089	0.683774
221	C	0.917794	0.876743	0.005644
222	C	0.878826	0.914162	0.006083
223	C	0.902285	0.963532	0.008003
224	N	0.954539	0.953977	0.009566
225	C	0.966174	0.902142	0.007828
226	C	0.01574	0.876535	0.007396
227	C	0.064768	0.903061	0.008085
228	N	0.07397	0.95524	0.008582
229	C	0.125751	0.966557	0.008215
230	C	0.151483	0.918388	0.007478
231	C	0.114065	0.879419	0.007951
232	C	0.15013	0.016613	0.007872
233	C	0.122354	0.065016	0.008719
234	N	0.070059	0.074452	0.009333
235	C	0.058429	0.126308	0.008949
236	C	0.106795	0.15184	0.008791
237	C	0.145758	0.114478	0.009096
238	C	0.008904	0.151924	0.008027
239	C	0.959897	0.125511	0.008212
240	N	0.95071	0.073356	0.009429
241	C	0.898967	0.062083	0.008411
242	C	0.873302	0.1103	0.006614
243	C	0.910727	0.149274	0.006758
244	C	0.874628	0.011994	0.007818
245	C	0.818814	0.010554	0.003353
246	C	0.785484	0.020419	0.707738
247	C	0.730618	0.020996	0.702235
248	C	0.707316	0.011673	0.99221
249	C	0.741125	0.001515	0.954715
250	C	0.795846	0.001104	0.960092
251	C	0.008306	0.207744	0.003549
252	C	0.017496	0.241053	0.708081
253	C	0.01833	0.295919	0.702571
254	C	0.009826	0.319227	0.992422
255	C	0.000312	0.285426	0.954787
256	C	0.999662	0.23071	0.960164
257	C	0.206129	0.018539	0.004913
258	C	0.230756	0.033911	0.96363
259	C	0.285492	0.039725	0.961295
260	C	0.317427	0.029171	0.999832
261	C	0.292899	0.012479	0.707477
262	C	0.23799	0.007568	0.710059
263	C	0.016733	0.820518	0.00432
264	C	0.031953	0.79569	0.963089
265	C	0.005307	0.788799	0.709463
266	C	0.00985	0.733854	0.707001
267	C	0.026621	0.709147	0.999472
268	C	0.037376	0.740917	0.960867
269	H	0.05004	0.724486	0.930813
270	H	0.040961	0.817559	0.93475
271	H	0.002769	0.712192	0.735875
272	H	0.994797	0.805652	0.739941
273	H	0.911112	0.837382	0.003569
274	H	0.839726	0.905914	0.004553
275	H	0.98055	0.981062	0.011363
276	H	0.044035	0.047325	0.008644
277	H	0.122266	0.84029	0.007711
278	H	0.190926	0.911904	0.006806
279	H	0.208776	0.042621	0.935291
280	H	0.301789	0.052319	0.93116
281	H	0.221274	0.996874	0.740548
282	H	0.314683	0.005447	0.736286
283	H	0.184847	0.122927	0.009131
284	H	0.11352	0.191259	0.008335
285	H	0.833899	0.116794	0.004896
286	H	0.902727	0.188421	0.0054
287	H	0.024267	0.22548	0.739866
288	H	0.02586	0.318691	0.730673
289	H	0.993159	0.20766	0.93201
290	H	0.994029	0.300351	0.922656
291	H	0.818905	0.99428	0.93201
292	H	0.7262	0.99471	0.922663
293	H	0.70785	0.0291	0.73021
294	H	0.801043	0.027952	0.7394
295	C	0.011669	0.373245	0.985091
296	C	0.370883	0.038584	0.997435
297	C	0.036058	0.655693	0.997305
298	C	0.653295	0.013395	0.984865
299	H	0.014629	0.385834	0.952864
300	H	0.382931	0.071355	0.982239
301	H	0.068941	0.643656	0.982314
302	H	0.640688	0.015738	0.952607
303	C	0.012665	0.538942	0.970155
304	C	0.006112	0.569424	0.677235
305	C	0.999985	0.541654	0.718751
306	N	0.001614	0.488508	0.719523
307	N	0.01391	0.485851	0.973869
308	H	0.994367	0.561179	0.748956
309	C	0.016286	0.559868	0.922961
310	H	0.009095	0.601788	0.921134
311	H	0.987311	0.540621	0.901233
312	H	0.055207	0.551933	0.909195
313	N	0.00298	0.621572	0.678645
314	C	0.487536	0.014762	0.97019
315	C	0.457134	0.008668	0.677376
316	C	0.484982	0.002916	0.718889
317	N	0.538128	0.00445	0.719547
318	N	0.540642	0.015925	0.97379
319	H	0.465512	0.997637	0.749168
320	C	0.466498	0.017896	0.923009
321	H	0.42454	0.010824	0.921336
322	H	0.485552	0.988606	0.901504
323	H	0.474568	0.056628	0.908879
324	N	0.404992	0.005608	0.678905
