data_C252H144N144_2018-02-15_10:38:17
#******************************************
#
# CIF file created by Zeo++
# Zeo++ is an open source package to
# analyze microporous materials
#
#*******************************************

_cell_length_a		29.1499   
_cell_length_b		29.1499   
_cell_length_c		29.8076   
_cell_angle_alpha		90   
_cell_angle_beta		90   
_cell_angle_gamma		120   

_symmetry_space_group_name_H-M		'P1'
_symmetry_Int_Tables_number		1
_symmetry_cell_setting		Monoclinic

loop_
_symmetry_equiv_pos_as_xyz
'+x,+y,+z'

loop_
_atom_site_label
_atom_site_type_symbol
_atom_site_fract_x
_atom_site_fract_y
_atom_site_fract_z
1	C	0.02883	0.310277	0.02335
2	C	0.030532	0.228692	0.355986
3	H	0.048699	0.206539	0.355738
4	C	0.049657	0.368166	0.023972
5	H	0.017869	0.377718	0.024414
6	C	0.02883	0.310277	0.356684
7	C	0.030532	0.228692	0.68932
8	H	0.048699	0.206539	0.689069
9	C	0.049657	0.368166	0.357305
10	H	0.017869	0.377718	0.357747
11	C	0.02883	0.310277	0.690018
12	C	0.030532	0.228692	0.022653
13	H	0.048699	0.206539	0.022403
14	C	0.049657	0.368166	0.690639
15	H	0.017869	0.377718	0.691081
16	C	0.02883	0.810278	0.02335
17	C	0.030533	0.728692	0.355986
18	H	0.048701	0.706541	0.355738
19	C	0.049659	0.868168	0.023972
20	H	0.017871	0.877718	0.024414
21	C	0.02883	0.810278	0.356684
22	C	0.030533	0.728692	0.68932
23	H	0.048701	0.706541	0.689069
24	C	0.049659	0.868168	0.357305
25	H	0.017871	0.877718	0.357747
26	C	0.02883	0.810278	0.690018
27	C	0.030533	0.728692	0.022653
28	H	0.048701	0.706541	0.022403
29	C	0.049659	0.868168	0.690639
30	H	0.017871	0.877718	0.691081
31	C	0.06009	0.284964	0.023002
32	H	0.073678	0.385471	0.053954
33	H	0.07344	0.386215	0.994024
34	C	0.06009	0.284964	0.356335
35	H	0.073678	0.385471	0.387287
36	H	0.07344	0.386215	0.327356
37	C	0.06009	0.284964	0.689669
38	H	0.073678	0.385471	0.720621
39	H	0.07344	0.386215	0.66069
40	C	0.060091	0.784965	0.023002
41	H	0.073679	0.88547	0.053954
42	H	0.073441	0.886215	0.994024
43	C	0.060091	0.784965	0.356335
44	H	0.073679	0.88547	0.387287
45	H	0.073441	0.886215	0.327356
46	C	0.060091	0.784965	0.689669
47	H	0.073679	0.88547	0.720621
48	H	0.073441	0.886215	0.66069
49	C	0.201398	0.391598	0.02301
50	N	0.147418	0.365067	0.023
51	C	0.116469	0.311413	0.023004
52	N	0.143	0.283964	0.022995
53	C	0.196654	0.306669	0.023004
54	N	0.224103	0.360649	0.023001
55	C	0.311779	0.115547	0.02277
56	N	0.365631	0.143975	0.022776
57	C	0.392519	0.197845	0.022772
58	N	0.364092	0.223269	0.02277
59	C	0.310222	0.196287	0.022763
60	N	0.284798	0.142436	0.022766
61	C	0.197789	0.220165	0.023337
62	C	0.223102	0.276739	0.022998
63	C	0.279375	0.303453	0.355986
64	N	0.306427	0.276844	0.355916
65	C	0.281582	0.223249	0.022827
66	N	0.227908	0.196474	0.023214
67	H	0.301528	0.343773	0.355744
68	C	0.139901	0.183104	0.023953
69	H	0.122592	0.189811	0.053936
70	H	0.130348	0.141764	0.024387
71	H	0.121855	0.188845	0.994004
72	C	0.287901	0.479236	0.023375
73	C	0.231329	0.447978	0.02301
74	C	0.204613	0.477533	0.355976
75	N	0.231222	0.031196	0.355906
76	C	0.284817	0.059945	0.022838
77	N	0.311592	0.033046	0.02325
78	H	0.164294	0.459366	0.355714
79	C	0.324961	0.458408	0.024033
80	H	0.318222	0.434387	0.054017
81	H	0.366301	0.490197	0.024498
82	H	0.319256	0.434632	0.994088
83	N	0.476869	0.201639	0.355919
84	C	0.448121	0.226485	0.022837
85	N	0.47502	0.280159	0.023229
86	C	0.201398	0.391598	0.356345
87	N	0.147418	0.365067	0.356332
88	C	0.116469	0.311413	0.356338
89	N	0.143	0.283964	0.356328
90	C	0.196654	0.306669	0.356338
91	N	0.224103	0.360649	0.356335
92	C	0.311779	0.115547	0.356103
93	N	0.365631	0.143975	0.35611
94	C	0.392519	0.197845	0.356107
95	N	0.364092	0.223269	0.356103
96	C	0.310222	0.196287	0.356097
97	N	0.284798	0.142436	0.3561
98	C	0.197789	0.220165	0.35667
99	C	0.223102	0.276739	0.356332
100	C	0.279375	0.303453	0.68932
101	N	0.306427	0.276844	0.689246
102	C	0.281582	0.223249	0.35616
103	N	0.227908	0.196474	0.356546
104	H	0.301528	0.343773	0.689079
105	C	0.139901	0.183104	0.357288
106	H	0.122592	0.189811	0.38727
107	H	0.130348	0.141764	0.357721
108	H	0.121855	0.188845	0.327338
109	C	0.287901	0.479236	0.356707
110	C	0.231329	0.447978	0.356345
111	C	0.204613	0.477533	0.68931
112	N	0.231222	0.031196	0.689236
113	C	0.284817	0.059945	0.356171
114	N	0.311592	0.033046	0.356583
115	H	0.164294	0.459366	0.689048
116	C	0.324961	0.458408	0.357365
117	H	0.318222	0.434387	0.387351
118	H	0.366301	0.490197	0.357831
119	H	0.319256	0.434632	0.32742
120	N	0.476869	0.201639	0.68925
121	C	0.448121	0.226485	0.356171
122	N	0.47502	0.280159	0.356563
123	C	0.201398	0.391598	0.689679
124	N	0.147418	0.365067	0.689666
125	C	0.116469	0.311413	0.689672
126	N	0.143	0.283964	0.689662
127	C	0.196654	0.306669	0.689672
128	N	0.224103	0.360649	0.689669
129	C	0.311779	0.115547	0.689438
130	N	0.365631	0.143975	0.689444
131	C	0.392519	0.197845	0.689441
132	N	0.364092	0.223269	0.689438
133	C	0.310222	0.196287	0.689431
134	N	0.284798	0.142436	0.689434
135	C	0.197789	0.220165	0.690005
136	C	0.223102	0.276739	0.689666
137	C	0.279375	0.303453	0.022652
138	N	0.306427	0.276844	0.02258
139	C	0.281582	0.223249	0.689495
140	N	0.227908	0.196474	0.68988
141	H	0.301528	0.343773	0.02241
142	C	0.139901	0.183104	0.690618
143	H	0.122592	0.189811	0.720604
144	H	0.130348	0.141764	0.691055
145	H	0.121855	0.188845	0.660673
146	C	0.287901	0.479236	0.690041
147	C	0.231329	0.447978	0.689679
148	C	0.204613	0.477533	0.022643
149	N	0.231222	0.031196	0.02257
150	C	0.284817	0.059945	0.689505
151	N	0.311592	0.033046	0.689917
152	H	0.164294	0.459366	0.022381
153	C	0.324961	0.458408	0.690699
154	H	0.318222	0.434387	0.720685
155	H	0.366301	0.490197	0.691165
156	H	0.319256	0.434632	0.660754
157	N	0.476869	0.201639	0.022584
158	C	0.448121	0.226485	0.689505
159	N	0.47502	0.280159	0.689897
160	C	0.201399	0.891598	0.02301
161	N	0.147419	0.865066	0.023
162	C	0.116471	0.811415	0.023004
163	N	0.143	0.783963	0.022995
164	C	0.196655	0.806669	0.023004
165	N	0.224104	0.860649	0.023001
166	C	0.311779	0.615547	0.02277
167	N	0.365632	0.643977	0.022776
168	C	0.392521	0.697846	0.022772
169	N	0.364093	0.723269	0.02277
170	C	0.310223	0.696289	0.022763
171	N	0.284799	0.642436	0.022766
172	C	0.197789	0.720163	0.023337
173	C	0.223103	0.776738	0.022998
174	C	0.279375	0.803453	0.355986
175	N	0.306429	0.776845	0.355916
176	C	0.281582	0.723249	0.022827
177	N	0.227909	0.696475	0.023214
178	H	0.301529	0.843774	0.355744
179	C	0.139902	0.683106	0.023953
180	H	0.122593	0.689812	0.053936
181	H	0.130348	0.641762	0.024387
182	H	0.121855	0.688846	0.994004
183	C	0.287903	0.979237	0.023375
184	C	0.23133	0.947979	0.02301
185	C	0.204615	0.977534	0.355976
186	N	0.231223	0.531196	0.355906
187	C	0.284819	0.559947	0.022838
188	N	0.311592	0.533046	0.02325
189	H	0.164295	0.959367	0.355714
190	C	0.324962	0.958409	0.024033
191	H	0.318221	0.934384	0.054017
192	H	0.366303	0.990198	0.024498
193	H	0.319255	0.934629	0.994088
194	N	0.476872	0.70164	0.355919
195	C	0.448122	0.726485	0.022837
196	N	0.475022	0.78016	0.023229
197	C	0.201399	0.891598	0.356345
198	N	0.147419	0.865066	0.356332
199	C	0.116471	0.811415	0.356338
200	N	0.143	0.783963	0.356328
201	C	0.196655	0.806669	0.356338
202	N	0.224104	0.860649	0.356335
203	C	0.311779	0.615547	0.356103
204	N	0.365632	0.643977	0.35611
205	C	0.392521	0.697846	0.356107
206	N	0.364093	0.723269	0.356103
207	C	0.310223	0.696289	0.356097
208	N	0.284799	0.642436	0.3561
209	C	0.197789	0.720163	0.35667
210	C	0.223103	0.776738	0.356332
211	C	0.279375	0.803453	0.68932
212	N	0.306429	0.776845	0.689246
213	C	0.281582	0.723249	0.35616
214	N	0.227909	0.696475	0.356546
215	H	0.301529	0.843774	0.689079
216	C	0.139902	0.683106	0.357288
217	H	0.122593	0.689812	0.38727
218	H	0.130348	0.641762	0.357721
219	H	0.121855	0.688846	0.327338
220	C	0.287903	0.979237	0.356707
221	C	0.23133	0.947979	0.356345
222	C	0.204615	0.977534	0.68931
223	N	0.231223	0.531196	0.689236
224	C	0.284819	0.559947	0.356171
225	N	0.311592	0.533046	0.356583
226	H	0.164295	0.959367	0.689048
227	C	0.324962	0.958409	0.357365
228	H	0.318221	0.934384	0.387351
229	H	0.366303	0.990198	0.357831
230	H	0.319255	0.934629	0.32742
231	N	0.476872	0.70164	0.68925
232	C	0.448122	0.726485	0.356171
233	N	0.475022	0.78016	0.356563
234	C	0.201399	0.891598	0.689679
235	N	0.147419	0.865066	0.689666
236	C	0.116471	0.811415	0.689672
237	N	0.143	0.783963	0.689662
238	C	0.196655	0.806669	0.689672
239	N	0.224104	0.860649	0.689669
240	C	0.311779	0.615547	0.689438
241	N	0.365632	0.643977	0.689444
242	C	0.392521	0.697846	0.689441
243	N	0.364093	0.723269	0.689438
244	C	0.310223	0.696289	0.689431
245	N	0.284799	0.642436	0.689434
246	C	0.197789	0.720163	0.690005
247	C	0.223103	0.776738	0.689666
248	C	0.279375	0.803453	0.022652
249	N	0.306429	0.776845	0.02258
250	C	0.281582	0.723249	0.689495
251	N	0.227909	0.696475	0.68988
252	H	0.301529	0.843774	0.02241
253	C	0.139902	0.683106	0.690618
254	H	0.122593	0.689812	0.720604
255	H	0.130348	0.641762	0.691055
256	H	0.121855	0.688846	0.660673
257	C	0.287903	0.979237	0.690041
258	C	0.23133	0.947979	0.689679
259	C	0.204615	0.977534	0.022643
260	N	0.231223	0.531196	0.02257
261	C	0.284819	0.559947	0.689505
262	N	0.311592	0.533046	0.689917
263	H	0.164295	0.959367	0.022381
264	C	0.324962	0.958409	0.690699
265	H	0.318221	0.934384	0.720685
266	H	0.366303	0.990198	0.691165
267	H	0.319255	0.934629	0.660754
268	N	0.476872	0.70164	0.022584
269	C	0.448122	0.726485	0.689505
270	N	0.475022	0.78016	0.689897
271	C	0.701396	0.391598	0.02301
272	N	0.647417	0.365067	0.023
273	C	0.61647	0.311413	0.023004
274	N	0.643	0.283964	0.022995
275	C	0.696654	0.306669	0.023004
276	N	0.724104	0.360649	0.023001
277	C	0.81178	0.115547	0.02277
278	N	0.86563	0.143975	0.022776
279	C	0.892521	0.197845	0.022772
280	N	0.86409	0.223269	0.02277
281	C	0.810222	0.196287	0.022763
282	N	0.784799	0.142436	0.022766
283	C	0.69779	0.220165	0.023337
284	C	0.723102	0.276739	0.022998
285	C	0.779376	0.303453	0.355986
286	N	0.806428	0.276844	0.355916
287	C	0.781583	0.223249	0.022827
288	N	0.727907	0.196474	0.023214
289	H	0.801529	0.343773	0.355744
290	C	0.639901	0.183104	0.023953
291	H	0.622592	0.189811	0.053936
292	H	0.630349	0.141764	0.024387
293	H	0.621855	0.188845	0.994004
294	C	0.787902	0.479236	0.023375
295	C	0.731329	0.447978	0.02301
296	C	0.704614	0.477533	0.355976
297	N	0.731223	0.031196	0.355906
298	C	0.784816	0.059945	0.022838
299	N	0.811593	0.033046	0.02325
300	H	0.664293	0.459366	0.355714
301	C	0.82496	0.458408	0.024033
302	H	0.818222	0.434387	0.054017
303	H	0.866302	0.490197	0.024498
304	H	0.819257	0.434632	0.994088
305	C	0.528828	0.310277	0.02335
306	C	0.560089	0.284964	0.023002
307	C	0.530533	0.228692	0.355986
308	N	0.976871	0.201639	0.355919
309	C	0.94812	0.226485	0.022837
310	N	0.975019	0.280159	0.023229
311	H	0.548699	0.206539	0.355738
312	C	0.549656	0.368166	0.023972
313	H	0.573678	0.385471	0.053954
314	H	0.517869	0.377718	0.024414
315	H	0.573439	0.386215	0.994024
316	C	0.701396	0.391598	0.356345
317	N	0.647417	0.365067	0.356332
318	C	0.61647	0.311413	0.356338
319	N	0.643	0.283964	0.356328
320	C	0.696654	0.306669	0.356338
321	N	0.724104	0.360649	0.356335
322	C	0.81178	0.115547	0.356103
323	N	0.86563	0.143975	0.35611
324	C	0.892521	0.197845	0.356107
325	N	0.86409	0.223269	0.356103
326	C	0.810222	0.196287	0.356097
327	N	0.784799	0.142436	0.3561
328	C	0.69779	0.220165	0.35667
329	C	0.723102	0.276739	0.356332
330	C	0.779376	0.303453	0.68932
331	N	0.806428	0.276844	0.689246
332	C	0.781583	0.223249	0.35616
333	N	0.727907	0.196474	0.356546
334	H	0.801529	0.343773	0.689079
335	C	0.639901	0.183104	0.357288
336	H	0.622592	0.189811	0.38727
337	H	0.630349	0.141764	0.357721
338	H	0.621855	0.188845	0.327338
339	C	0.787902	0.479236	0.356707
340	C	0.731329	0.447978	0.356345
341	C	0.704614	0.477533	0.68931
342	N	0.731223	0.031196	0.689236
343	C	0.784816	0.059945	0.356171
344	N	0.811593	0.033046	0.356583
345	H	0.664293	0.459366	0.689048
346	C	0.82496	0.458408	0.357365
347	H	0.818222	0.434387	0.387351
348	H	0.866302	0.490197	0.357831
349	H	0.819257	0.434632	0.32742
350	C	0.528828	0.310277	0.356684
351	C	0.560089	0.284964	0.356335
352	C	0.530533	0.228692	0.68932
353	N	0.976871	0.201639	0.68925
354	C	0.94812	0.226485	0.356171
355	N	0.975019	0.280159	0.356563
356	H	0.548699	0.206539	0.689069
357	C	0.549656	0.368166	0.357305
358	H	0.573678	0.385471	0.387287
359	H	0.517869	0.377718	0.357747
360	H	0.573439	0.386215	0.327356
361	C	0.701396	0.391598	0.689679
362	N	0.647417	0.365067	0.689666
363	C	0.61647	0.311413	0.689672
364	N	0.643	0.283964	0.689662
365	C	0.696654	0.306669	0.689672
366	N	0.724104	0.360649	0.689669
367	C	0.81178	0.115547	0.689438
368	N	0.86563	0.143975	0.689444
369	C	0.892521	0.197845	0.689441
370	N	0.86409	0.223269	0.689438
371	C	0.810222	0.196287	0.689431
372	N	0.784799	0.142436	0.689434
373	C	0.69779	0.220165	0.690005
374	C	0.723102	0.276739	0.689666
375	C	0.779376	0.303453	0.022652
376	N	0.806428	0.276844	0.02258
377	C	0.781583	0.223249	0.689495
378	N	0.727907	0.196474	0.68988
379	H	0.801529	0.343773	0.02241
380	C	0.639901	0.183104	0.690618
381	H	0.622592	0.189811	0.720604
382	H	0.630349	0.141764	0.691055
383	H	0.621855	0.188845	0.660673
384	C	0.787902	0.479236	0.690041
385	C	0.731329	0.447978	0.689679
386	C	0.704614	0.477533	0.022643
387	N	0.731223	0.031196	0.02257
388	C	0.784816	0.059945	0.689505
389	N	0.811593	0.033046	0.689917
390	H	0.664293	0.459366	0.022381
391	C	0.82496	0.458408	0.690699
392	H	0.818222	0.434387	0.720685
393	H	0.866302	0.490197	0.691165
394	H	0.819257	0.434632	0.660754
395	C	0.528828	0.310277	0.690018
396	C	0.560089	0.284964	0.689669
397	C	0.530533	0.228692	0.022653
398	N	0.976871	0.201639	0.022584
399	C	0.94812	0.226485	0.689505
400	N	0.975019	0.280159	0.689897
401	H	0.548699	0.206539	0.022403
402	C	0.549656	0.368166	0.690639
403	H	0.573678	0.385471	0.720621
404	H	0.517869	0.377718	0.691081
405	H	0.573439	0.386215	0.66069
406	C	0.701399	0.891598	0.02301
407	N	0.647419	0.865066	0.023
408	C	0.616471	0.811415	0.023004
409	N	0.643	0.783963	0.022995
410	C	0.696655	0.806669	0.023004
411	N	0.724104	0.860649	0.023001
412	C	0.81178	0.615547	0.02277
413	N	0.865631	0.643977	0.022776
414	C	0.892521	0.697846	0.022772
415	N	0.864094	0.723269	0.02277
416	C	0.810223	0.696289	0.022763
417	N	0.784799	0.642436	0.022766
418	C	0.697789	0.720163	0.023337
419	C	0.723103	0.776738	0.022998
420	C	0.779376	0.803453	0.355986
421	N	0.806429	0.776845	0.355916
422	C	0.781583	0.723249	0.022827
423	N	0.727907	0.696475	0.023214
424	H	0.80153	0.843774	0.355744
425	C	0.639903	0.683106	0.023953
426	H	0.622593	0.689812	0.053936
427	H	0.630348	0.641762	0.024387
428	H	0.621856	0.688846	0.994004
429	C	0.787903	0.979237	0.023375
430	C	0.731331	0.947979	0.02301
431	C	0.704615	0.977534	0.355976
432	N	0.731223	0.531196	0.355906
433	C	0.78482	0.559947	0.022838
434	N	0.811593	0.533046	0.02325
435	H	0.664295	0.959367	0.355714
436	C	0.824964	0.958409	0.024033
437	H	0.81822	0.934384	0.054017
438	H	0.866303	0.990198	0.024498
439	H	0.819256	0.934629	0.994088
440	C	0.528831	0.810278	0.02335
441	C	0.560091	0.784965	0.023002
442	C	0.530533	0.728692	0.355986
443	N	0.976872	0.70164	0.355919
444	C	0.948121	0.726485	0.022837
445	N	0.975024	0.78016	0.023229
446	H	0.548701	0.706541	0.355738
447	C	0.549659	0.868168	0.023972
448	H	0.573678	0.88547	0.053954
449	H	0.51787	0.877718	0.024414
450	H	0.573441	0.886215	0.994024
451	C	0.701399	0.891598	0.356345
452	N	0.647419	0.865066	0.356332
453	C	0.616471	0.811415	0.356338
454	N	0.643	0.783963	0.356328
455	C	0.696655	0.806669	0.356338
456	N	0.724104	0.860649	0.356335
457	C	0.81178	0.615547	0.356103
458	N	0.865631	0.643977	0.35611
459	C	0.892521	0.697846	0.356107
460	N	0.864094	0.723269	0.356103
461	C	0.810223	0.696289	0.356097
462	N	0.784799	0.642436	0.3561
463	C	0.697789	0.720163	0.35667
464	C	0.723103	0.776738	0.356332
465	C	0.779376	0.803453	0.68932
466	N	0.806429	0.776845	0.689246
467	C	0.781583	0.723249	0.35616
468	N	0.727907	0.696475	0.356546
469	H	0.80153	0.843774	0.689079
470	C	0.639903	0.683106	0.357288
471	H	0.622593	0.689812	0.38727
472	H	0.630348	0.641762	0.357721
473	H	0.621856	0.688846	0.327338
474	C	0.787903	0.979237	0.356707
475	C	0.731331	0.947979	0.356345
476	C	0.704615	0.977534	0.68931
477	N	0.731223	0.531196	0.689236
478	C	0.78482	0.559947	0.356171
479	N	0.811593	0.533046	0.356583
480	H	0.664295	0.959367	0.689048
481	C	0.824964	0.958409	0.357365
482	H	0.81822	0.934384	0.387351
483	H	0.866303	0.990198	0.357831
484	H	0.819256	0.934629	0.32742
485	C	0.528831	0.810278	0.356684
486	C	0.560091	0.784965	0.356335
487	C	0.530533	0.728692	0.68932
488	N	0.976872	0.70164	0.68925
489	C	0.948121	0.726485	0.356171
490	N	0.975024	0.78016	0.356563
491	H	0.548701	0.706541	0.689069
492	C	0.549659	0.868168	0.357305
493	H	0.573678	0.88547	0.387287
494	H	0.51787	0.877718	0.357747
495	H	0.573441	0.886215	0.327356
496	C	0.701399	0.891598	0.689679
497	N	0.647419	0.865066	0.689666
498	C	0.616471	0.811415	0.689672
499	N	0.643	0.783963	0.689662
500	C	0.696655	0.806669	0.689672
501	N	0.724104	0.860649	0.689669
502	C	0.81178	0.615547	0.689438
503	N	0.865631	0.643977	0.689444
504	C	0.892521	0.697846	0.689441
505	N	0.864094	0.723269	0.689438
506	C	0.810223	0.696289	0.689431
507	N	0.784799	0.642436	0.689434
508	C	0.697789	0.720163	0.690005
509	C	0.723103	0.776738	0.689666
510	C	0.779376	0.803453	0.022652
511	N	0.806429	0.776845	0.02258
512	C	0.781583	0.723249	0.689495
513	N	0.727907	0.696475	0.68988
514	H	0.80153	0.843774	0.02241
515	C	0.639903	0.683106	0.690618
516	H	0.622593	0.689812	0.720604
517	H	0.630348	0.641762	0.691055
518	H	0.621856	0.688846	0.660673
519	C	0.787903	0.979237	0.690041
520	C	0.731331	0.947979	0.689679
521	C	0.704615	0.977534	0.022643
522	N	0.731223	0.531196	0.02257
523	C	0.78482	0.559947	0.689505
524	N	0.811593	0.533046	0.689917
525	H	0.664295	0.959367	0.022381
526	C	0.824964	0.958409	0.690699
527	H	0.81822	0.934384	0.720685
528	H	0.866303	0.990198	0.691165
529	H	0.819256	0.934629	0.660754
530	C	0.528831	0.810278	0.690018
531	C	0.560091	0.784965	0.689669
532	C	0.530533	0.728692	0.022653
533	N	0.976872	0.70164	0.022584
534	C	0.948121	0.726485	0.689505
535	N	0.975024	0.78016	0.689897
536	H	0.548701	0.706541	0.022403
537	C	0.549659	0.868168	0.690639
538	H	0.573678	0.88547	0.720621
539	H	0.51787	0.877718	0.691081
540	H	0.573441	0.886215	0.66069
