data_C126H72N54O18_2018-02-15_10:32:31
#******************************************
#
# CIF file created by Zeo++
# Zeo++ is an open source package to
# analyze microporous materials
#
#*******************************************

_cell_length_a		29.0901   
_cell_length_b		29.0909   
_cell_length_c		30.1156   
_cell_angle_alpha		90   
_cell_angle_beta		90   
_cell_angle_gamma		120.001   

_symmetry_space_group_name_H-M		'P1'
_symmetry_Int_Tables_number		1
_symmetry_cell_setting		Monoclinic

loop_
_symmetry_equiv_pos_as_xyz
'+x,+y,+z'

loop_
_atom_site_label
_atom_site_type_symbol
_atom_site_fract_x
_atom_site_fract_y
_atom_site_fract_z
1	C	0.276989	0.62956	0.045609
2	N	0.312552	0.612278	0.04528
3	C	0.36573	0.646466	0.379226
4	N	0.383026	0.699313	0.045458
5	C	0.34884	0.718311	0.045794
6	N	0.295996	0.682741	0.04518
7	C	0.4024	0.628353	0.041592
8	C	0.366956	0.773071	0.374686
9	C	0.222232	0.592943	0.04104
10	O	0.329661	0.787833	0.038124
11	O	0.207439	0.540873	0.037914
12	O	0.454488	0.665649	0.038672
13	C	0.717232	0.366629	0.950611
14	N	0.681626	0.383858	0.950973
15	C	0.628451	0.349625	0.283707
16	N	0.611218	0.29679	0.95078
17	C	0.645458	0.277862	0.950421
18	N	0.698291	0.313459	0.951016
19	C	0.591763	0.367707	0.954688
20	C	0.627396	0.223101	0.28814
21	C	0.771976	0.40332	0.95515
22	O	0.664726	0.208385	0.957989
23	O	0.786684	0.455366	0.958314
24	O	0.539681	0.330388	0.95759
25	C	0.41974	0.556405	0.027634
26	C	0.45527	0.576697	0.324713
27	C	0.486371	0.554163	0.312635
28	C	0.48185	0.510302	0.003344
29	N	0.44629	0.491241	0.037414
30	C	0.415471	0.511766	0.049883
31	C	0.512184	0.485676	0.326158
32	C	0.507673	0.441823	0.016875
33	C	0.538812	0.419324	0.004826
34	C	0.574362	0.439632	0.301921
35	C	0.578573	0.484219	0.279627
36	N	0.547743	0.504737	0.292089
37	H	0.604277	0.501164	0.25367
38	H	0.482454	0.426219	0.043336
39	H	0.536195	0.388688	0.023409
40	H	0.389791	0.494841	0.075858
41	H	0.457905	0.607348	0.306143
42	H	0.511595	0.56977	0.286179
43	N	0.387178	0.575887	0.038894
44	H	0.350387	0.549697	0.04563
45	N	0.606944	0.42017	0.290671
46	H	0.643727	0.446371	0.283927
47	C	0.438929	0.862362	0.027523
48	C	0.418882	0.877544	0.324393
49	C	0.441382	0.931174	0.31232
50	C	0.484962	0.970574	0.003255
51	N	0.503803	0.954129	0.037527
52	C	0.483303	0.902789	0.05
53	C	0.50952	0.025533	0.326096
54	C	0.553098	0.064932	0.017031
55	C	0.57556	0.118568	0.00499
56	C	0.555473	0.133754	0.30189
57	C	0.51113	0.093321	0.279389
58	N	0.490658	0.041977	0.291841
59	H	0.494354	0.102037	0.253279
60	H	0.568518	0.055359	0.043648
61	H	0.605973	0.146627	0.023732
62	H	0.500052	0.894077	0.076134
63	H	0.388444	0.849485	0.305673
64	H	0.425961	0.940748	0.285705
65	N	0.419436	0.810336	0.038829
66	H	0.445601	0.799777	0.045797
67	N	0.574931	0.185791	0.29063
68	H	0.548736	0.196322	0.283691
69	C	0.132927	0.575661	0.027258
70	C	0.117609	0.540218	0.324272
71	C	0.063935	0.509063	0.312329
72	C	0.024632	0.51341	0.003264
73	N	0.041201	0.54886	0.037414
74	C	0.092587	0.579733	0.04976
75	C	0.969633	0.483004	0.326225
76	C	0.930331	0.487355	0.017154
77	C	0.876654	0.456188	0.005209
78	C	0.861338	0.420757	0.302214
79	C	0.901685	0.416661	0.279743
80	N	0.953066	0.447534	0.292088
81	H	0.892876	0.391048	0.25371
82	H	0.939997	0.512469	0.043694
83	H	0.848662	0.458657	0.023954
84	H	0.101396	0.605323	0.07581
85	H	0.145596	0.537722	0.305542
86	H	0.054262	0.483933	0.285798
87	N	0.184995	0.608189	0.038465
88	H	0.195582	0.644925	0.045416
89	N	0.809268	0.388149	0.291059
90	H	0.798733	0.351427	0.284107
91	C	0.276989	0.62956	0.378943
92	N	0.312552	0.612278	0.378615
93	C	0.36573	0.646466	0.712558
94	N	0.383026	0.699313	0.378791
95	C	0.34884	0.718311	0.379126
96	N	0.295996	0.682741	0.378512
97	C	0.4024	0.628353	0.374925
98	C	0.366956	0.773071	0.708019
99	C	0.222232	0.592943	0.374374
100	O	0.329661	0.787833	0.371459
101	O	0.207439	0.540873	0.371246
102	O	0.454488	0.665649	0.372007
103	C	0.717232	0.366629	0.283943
104	N	0.681626	0.383858	0.284305
105	C	0.628451	0.349625	0.617039
106	N	0.611218	0.29679	0.284115
107	C	0.645458	0.277862	0.283755
108	N	0.698291	0.313459	0.28435
109	C	0.591763	0.367707	0.28802
110	C	0.627396	0.223101	0.621472
111	C	0.771976	0.40332	0.288483
112	O	0.664726	0.208385	0.291321
113	O	0.786684	0.455366	0.291648
114	O	0.539681	0.330388	0.290922
115	C	0.41974	0.556405	0.360966
116	C	0.45527	0.576697	0.658045
117	C	0.486371	0.554163	0.645968
118	C	0.48185	0.510302	0.336676
119	N	0.44629	0.491241	0.370748
120	C	0.415471	0.511766	0.383217
121	C	0.512184	0.485676	0.659492
122	C	0.507673	0.441823	0.350207
123	C	0.538812	0.419324	0.33816
124	C	0.574362	0.439632	0.635256
125	C	0.578573	0.484219	0.612962
126	N	0.547743	0.504737	0.62542
127	H	0.604277	0.501164	0.587005
128	H	0.482454	0.426219	0.376669
129	H	0.536195	0.388688	0.356742
130	H	0.389791	0.494841	0.40919
131	H	0.457905	0.607348	0.639476
132	H	0.511595	0.56977	0.619513
133	N	0.387178	0.575887	0.372226
134	H	0.350387	0.549697	0.378963
135	N	0.606944	0.42017	0.624006
136	H	0.643727	0.446371	0.617262
137	C	0.438929	0.862362	0.360856
138	C	0.418882	0.877544	0.657726
139	C	0.441382	0.931174	0.645652
140	C	0.484962	0.970574	0.336586
141	N	0.503803	0.954129	0.370861
142	C	0.483303	0.902789	0.383333
143	C	0.50952	0.025533	0.659429
144	C	0.553098	0.064932	0.350363
145	C	0.57556	0.118568	0.338323
146	C	0.555473	0.133754	0.635222
147	C	0.51113	0.093321	0.612723
148	N	0.490658	0.041977	0.625175
149	H	0.494354	0.102037	0.586613
150	H	0.568518	0.055359	0.376981
151	H	0.605973	0.146627	0.357064
152	H	0.500052	0.894077	0.409466
153	H	0.388444	0.849485	0.639005
154	H	0.425961	0.940748	0.619038
155	N	0.419436	0.810336	0.372163
156	H	0.445601	0.799777	0.379129
157	N	0.574931	0.185791	0.623963
158	H	0.548736	0.196322	0.617026
159	C	0.132927	0.575661	0.360591
160	C	0.117609	0.540218	0.657606
161	C	0.063935	0.509063	0.645662
162	C	0.024632	0.51341	0.336596
163	N	0.041201	0.54886	0.370748
164	C	0.092587	0.579733	0.383094
165	C	0.969633	0.483004	0.659559
166	C	0.930331	0.487355	0.350486
167	C	0.876654	0.456188	0.338542
168	C	0.861338	0.420757	0.635548
169	C	0.901685	0.416661	0.613078
170	N	0.953066	0.447534	0.62542
171	H	0.892876	0.391048	0.587045
172	H	0.939997	0.512469	0.377027
173	H	0.848662	0.458657	0.357287
174	H	0.101396	0.605323	0.409144
175	H	0.145596	0.537722	0.638875
176	H	0.054262	0.483933	0.619131
177	N	0.184995	0.608189	0.371797
178	H	0.195582	0.644925	0.378747
179	N	0.809268	0.388149	0.624391
180	H	0.798733	0.351427	0.617441
181	C	0.276989	0.62956	0.712276
182	N	0.312552	0.612278	0.711947
183	C	0.36573	0.646466	0.045891
184	N	0.383026	0.699313	0.712123
185	C	0.34884	0.718311	0.712462
186	N	0.295996	0.682741	0.711847
187	C	0.4024	0.628353	0.708258
188	C	0.366956	0.773071	0.041353
189	C	0.222232	0.592943	0.707707
190	O	0.329661	0.787833	0.704791
191	O	0.207439	0.540873	0.704582
192	O	0.454488	0.665649	0.705339
193	C	0.717232	0.366629	0.617275
194	N	0.681626	0.383858	0.617637
195	C	0.628451	0.349625	0.950372
196	N	0.611218	0.29679	0.617448
197	C	0.645458	0.277862	0.617089
198	N	0.698291	0.313459	0.617683
199	C	0.591763	0.367707	0.621353
200	C	0.627396	0.223101	0.954808
201	C	0.771976	0.40332	0.621817
202	O	0.664726	0.208385	0.624653
203	O	0.786684	0.455366	0.624982
204	O	0.539681	0.330388	0.624255
205	C	0.41974	0.556405	0.694302
206	C	0.45527	0.576697	0.99138
207	C	0.486371	0.554163	0.979303
208	C	0.48185	0.510302	0.670012
209	N	0.44629	0.491241	0.704081
210	C	0.415471	0.511766	0.716549
211	C	0.512184	0.485676	0.992825
212	C	0.507673	0.441823	0.683543
213	C	0.538812	0.419324	0.671493
214	C	0.574362	0.439632	0.968588
215	C	0.578573	0.484219	0.946294
216	N	0.547743	0.504737	0.958756
217	H	0.604277	0.501164	0.920337
218	H	0.482454	0.426219	0.710004
219	H	0.536195	0.388688	0.690074
220	H	0.389791	0.494841	0.742526
221	H	0.457905	0.607348	0.972808
222	H	0.511595	0.56977	0.952845
223	N	0.387178	0.575887	0.705561
224	H	0.350387	0.549697	0.712296
225	N	0.606944	0.42017	0.957338
226	H	0.643727	0.446371	0.950594
227	C	0.438929	0.862362	0.694189
228	C	0.418882	0.877544	0.991058
229	C	0.441382	0.931174	0.978988
230	C	0.484962	0.970574	0.669922
231	N	0.503803	0.954129	0.704193
232	C	0.483303	0.902789	0.716665
233	C	0.50952	0.025533	0.992762
234	C	0.553098	0.064932	0.683699
235	C	0.57556	0.118568	0.671655
236	C	0.555473	0.133754	0.968558
237	C	0.51113	0.093321	0.946055
238	N	0.490658	0.041977	0.958507
239	H	0.494354	0.102037	0.919945
240	H	0.568518	0.055359	0.710316
241	H	0.605973	0.146627	0.690397
242	H	0.500052	0.894077	0.742801
243	H	0.388444	0.849485	0.97234
244	H	0.425961	0.940748	0.952371
245	N	0.419436	0.810336	0.705495
246	H	0.445601	0.799777	0.712465
247	N	0.574931	0.185791	0.957298
248	H	0.548736	0.196322	0.950358
249	C	0.132927	0.575661	0.693926
250	C	0.117609	0.540218	0.990939
251	C	0.063935	0.509063	0.978995
252	C	0.024632	0.51341	0.669932
253	N	0.041201	0.54886	0.704081
254	C	0.092587	0.579733	0.716426
255	C	0.969633	0.483004	0.992891
256	C	0.930331	0.487355	0.683819
257	C	0.876654	0.456188	0.671875
258	C	0.861338	0.420757	0.96888
259	C	0.901685	0.416661	0.94641
260	N	0.953066	0.447534	0.958756
261	H	0.892876	0.391048	0.920377
262	H	0.939997	0.512469	0.71036
263	H	0.848662	0.458657	0.690622
264	H	0.101396	0.605323	0.742476
265	H	0.145596	0.537722	0.972207
266	H	0.054262	0.483933	0.952463
267	N	0.184995	0.608189	0.70513
268	H	0.195582	0.644925	0.712083
269	N	0.809268	0.388149	0.957727
270	H	0.798733	0.351427	0.950773
