data_C162H90N36_2018-02-15_10:46:03
#******************************************
#
# CIF file created by Zeo++
# Zeo++ is an open source package to
# analyze microporous materials
#
#*******************************************

_cell_length_a		29.1981   
_cell_length_b		29.198   
_cell_length_c		30.01   
_cell_angle_alpha		90   
_cell_angle_beta		90   
_cell_angle_gamma		120   

_symmetry_space_group_name_H-M		'P1'
_symmetry_Int_Tables_number		1
_symmetry_cell_setting		Monoclinic

loop_
_symmetry_equiv_pos_as_xyz
'+x,+y,+z'

loop_
_atom_site_label
_atom_site_type_symbol
_atom_site_fract_x
_atom_site_fract_y
_atom_site_fract_z
1	C	0.361372	0.638727	0.999799
2	C	0.305625	0.610925	0.000279
3	C	0.277014	0.638209	0.999739
4	C	0.304962	0.693959	0.000244
5	C	0.360856	0.722571	0.999726
6	C	0.388657	0.694623	0.000257
7	H	0.284466	0.713946	0.001403
8	H	0.42914	0.715116	0.001445
9	H	0.285635	0.570441	0.001458
10	N	0.386093	0.611076	0.002006
11	N	0.224643	0.613496	0.00196
12	N	0.388512	0.774939	0.001951
13	C	0.638524	0.361339	0.996364
14	C	0.694268	0.388753	0.99582
15	C	0.722476	0.36106	0.996324
16	C	0.694148	0.305316	0.995824
17	C	0.638246	0.277107	0.99636
18	C	0.61083	0.305437	0.995847
19	H	0.714359	0.28502	0.995401
20	H	0.570326	0.285227	0.995434
21	H	0.714563	0.429261	0.995404
22	N	0.614189	0.389441	0.99601
23	N	0.774916	0.385402	0.995967
24	N	0.610148	0.22467	0.995997
25	C	0.447344	0.58431	0.321543
26	C	0.46506	0.566399	0.285297
27	N	0.485325	0.534164	0.292362
28	C	0.490274	0.517645	0.333509
29	C	0.473603	0.534643	0.038087
30	C	0.452127	0.568036	0.031535
31	H	0.440339	0.580976	0.058595
32	C	0.511773	0.484109	0.005502
33	C	0.548558	0.435102	0.306034
34	C	0.554394	0.41682	0.01476
35	C	0.537915	0.433307	0.052824
36	H	0.462692	0.577057	0.253278
37	N	0.527775	0.467381	0.302913
38	C	0.516712	0.467262	0.048767
39	C	0.500296	0.484544	0.086269
40	C	0.478944	0.517997	0.080974
41	H	0.503633	0.472838	0.117676
42	H	0.467203	0.52994	0.108639
43	H	0.54158	0.420699	0.083814
44	H	0.55918	0.423918	0.277336
45	C	0.574165	0.382768	0.019018
46	C	0.427483	0.617886	0.31447
47	H	0.558286	0.354071	0.041707
48	H	0.444704	0.646502	0.291852
49	C	0.415271	0.86296	0.321512
50	C	0.433177	0.898592	0.285269
51	N	0.465414	0.951091	0.292338
52	C	0.481937	0.972553	0.333485
53	C	0.464943	0.938882	0.038061
54	C	0.431547	0.884011	0.031506
55	H	0.418612	0.859282	0.058564
56	C	0.515472	0.027585	0.005481
57	C	0.564479	0.113379	0.306017
58	C	0.582766	0.137494	0.014742
59	C	0.566283	0.104526	0.052805
60	H	0.422516	0.885569	0.25325
61	N	0.532198	0.060318	0.302894
62	C	0.532327	0.04937	0.048746
63	C	0.515048	0.015667	0.086247
64	C	0.481595	0.960867	0.080949
65	H	0.526757	0.030707	0.117654
66	H	0.469654	0.937178	0.108612
67	H	0.578895	0.120797	0.083795
68	H	0.57566	0.135185	0.277319
69	C	0.616826	0.191317	0.018997
70	C	0.381694	0.809527	0.314436
71	H	0.645514	0.204129	0.041696
72	H	0.353065	0.798134	0.291829
73	C	0.136627	0.552233	0.32152
74	C	0.101002	0.534508	0.285274
75	N	0.048501	0.514244	0.292338
76	C	0.027032	0.509301	0.333482
77	C	0.0607	0.525978	0.038062
78	C	0.115572	0.547456	0.031512
79	H	0.140299	0.559249	0.058571
80	C	0.971997	0.487799	0.005475
81	C	0.886206	0.451012	0.306003
82	C	0.862088	0.445183	0.014726
83	C	0.895048	0.461662	0.052792
84	H	0.114027	0.536869	0.253256
85	N	0.939271	0.471794	0.302884
86	C	0.950208	0.482867	0.048738
87	C	0.983903	0.499287	0.086241
88	C	0.038711	0.520643	0.080948
89	H	0.96886	0.495958	0.117647
90	H	0.062395	0.532388	0.108614
91	H	0.878775	0.458008	0.08378
92	H	0.864406	0.440394	0.277303
93	C	0.808264	0.425425	0.018976
94	C	0.19006	0.572086	0.314449
95	H	0.795444	0.44128	0.041687
96	H	0.201453	0.554843	0.291849
97	C	0.361372	0.638727	0.333131
98	C	0.305625	0.610925	0.333612
99	C	0.277014	0.638209	0.333073
100	C	0.304962	0.693959	0.333579
101	C	0.360856	0.722571	0.33306
102	C	0.388657	0.694623	0.333592
103	H	0.284466	0.713946	0.334738
104	H	0.42914	0.715116	0.334778
105	H	0.285635	0.570441	0.334791
106	N	0.386093	0.611076	0.335341
107	N	0.224643	0.613496	0.335295
108	N	0.388512	0.774939	0.335285
109	C	0.638524	0.361339	0.329695
110	C	0.694268	0.388753	0.329154
111	C	0.722476	0.36106	0.329658
112	C	0.694148	0.305316	0.329157
113	C	0.638246	0.277107	0.329693
114	C	0.61083	0.305437	0.329179
115	H	0.714359	0.28502	0.328732
116	H	0.570326	0.285227	0.328768
117	H	0.714563	0.429261	0.328737
118	N	0.614189	0.389441	0.329342
119	N	0.774916	0.385402	0.3293
120	N	0.610148	0.22467	0.329332
121	C	0.447344	0.58431	0.654874
122	C	0.46506	0.566399	0.61863
123	N	0.485325	0.534164	0.625694
124	C	0.490274	0.517645	0.66684
125	C	0.473603	0.534643	0.371419
126	C	0.452127	0.568036	0.364868
127	H	0.440339	0.580976	0.391929
128	C	0.511773	0.484109	0.338837
129	C	0.548558	0.435102	0.63937
130	C	0.554394	0.41682	0.348094
131	C	0.537915	0.433307	0.386158
132	H	0.462692	0.577057	0.586611
133	N	0.527775	0.467381	0.636247
134	C	0.516712	0.467262	0.382099
135	C	0.500296	0.484544	0.419603
136	C	0.478944	0.517997	0.414308
137	H	0.503633	0.472838	0.451009
138	H	0.467203	0.52994	0.441972
139	H	0.54158	0.420699	0.417147
140	H	0.55918	0.423918	0.610669
141	C	0.574165	0.382768	0.352352
142	C	0.427483	0.617886	0.647803
143	H	0.558286	0.354071	0.375041
144	H	0.444704	0.646502	0.625188
145	C	0.415271	0.86296	0.654844
146	C	0.433177	0.898592	0.618603
147	N	0.465414	0.951091	0.625671
148	C	0.481937	0.972553	0.666817
149	C	0.464943	0.938882	0.371396
150	C	0.431547	0.884011	0.364841
151	H	0.418612	0.859282	0.391896
152	C	0.515472	0.027585	0.338813
153	C	0.564479	0.113379	0.63935
154	C	0.582766	0.137494	0.348077
155	C	0.566283	0.104526	0.386138
156	H	0.422516	0.885569	0.586584
157	N	0.532198	0.060318	0.636227
158	C	0.532327	0.04937	0.382079
159	C	0.515048	0.015667	0.41958
160	C	0.481595	0.960867	0.414282
161	H	0.526757	0.030707	0.450986
162	H	0.469654	0.937178	0.441946
163	H	0.578895	0.120797	0.417127
164	H	0.57566	0.135185	0.610653
165	C	0.616826	0.191317	0.352329
166	C	0.381694	0.809527	0.64777
167	H	0.645514	0.204129	0.375028
168	H	0.353065	0.798134	0.625161
169	C	0.136627	0.552233	0.654854
170	C	0.101002	0.534508	0.618607
171	N	0.048501	0.514244	0.625671
172	C	0.027032	0.509301	0.666817
173	C	0.0607	0.525978	0.371396
174	C	0.115572	0.547456	0.364845
175	H	0.140299	0.559249	0.391906
176	C	0.971997	0.487799	0.33881
177	C	0.886206	0.451012	0.639336
178	C	0.862088	0.445183	0.34806
179	C	0.895048	0.461662	0.386124
180	H	0.114027	0.536869	0.586591
181	N	0.939271	0.471794	0.636217
182	C	0.950208	0.482867	0.382072
183	C	0.983903	0.499287	0.419573
184	C	0.038711	0.520643	0.414282
185	H	0.96886	0.495958	0.450979
186	H	0.062395	0.532388	0.441946
187	H	0.878775	0.458008	0.417114
188	H	0.864406	0.440394	0.610636
189	C	0.808264	0.425425	0.352309
190	C	0.19006	0.572086	0.647783
191	H	0.795444	0.44128	0.375021
192	H	0.201453	0.554843	0.625184
193	C	0.361372	0.638727	0.666464
194	C	0.305625	0.610925	0.666947
195	C	0.277014	0.638209	0.666407
196	C	0.304962	0.693959	0.66691
197	C	0.360856	0.722571	0.666394
198	C	0.388657	0.694623	0.666924
199	H	0.284466	0.713946	0.66807
200	H	0.42914	0.715116	0.668113
201	H	0.285635	0.570441	0.668123
202	N	0.386093	0.611076	0.668673
203	N	0.224643	0.613496	0.668627
204	N	0.388512	0.774939	0.66862
205	C	0.638524	0.361339	0.663028
206	C	0.694268	0.388753	0.662489
207	C	0.722476	0.36106	0.662992
208	C	0.694148	0.305316	0.662492
209	C	0.638246	0.277107	0.663028
210	C	0.61083	0.305437	0.662512
211	H	0.714359	0.28502	0.662065
212	H	0.570326	0.285227	0.662102
213	H	0.714563	0.429261	0.662072
214	N	0.614189	0.389441	0.662675
215	N	0.774916	0.385402	0.662635
216	N	0.610148	0.22467	0.662665
217	C	0.447344	0.58431	0.98821
218	C	0.46506	0.566399	0.951965
219	N	0.485325	0.534164	0.959029
220	C	0.490274	0.517645	0.000174
221	C	0.473603	0.534643	0.704754
222	C	0.452127	0.568036	0.698203
223	H	0.440339	0.580976	0.725261
224	C	0.511773	0.484109	0.672169
225	C	0.548558	0.435102	0.972702
226	C	0.554394	0.41682	0.681426
227	C	0.537915	0.433307	0.71949
228	H	0.462692	0.577057	0.919946
229	N	0.527775	0.467381	0.969579
230	C	0.516712	0.467262	0.715434
231	C	0.500296	0.484544	0.752935
232	C	0.478944	0.517997	0.74764
233	H	0.503633	0.472838	0.784345
234	H	0.467203	0.52994	0.775308
235	H	0.54158	0.420699	0.750482
236	H	0.55918	0.423918	0.944004
237	C	0.574165	0.382768	0.685684
238	C	0.427483	0.617886	0.981139
239	H	0.558286	0.354071	0.708373
240	H	0.444704	0.646502	0.95852
241	C	0.415271	0.86296	0.98818
242	C	0.433177	0.898592	0.951935
243	N	0.465414	0.951091	0.959006
244	C	0.481937	0.972553	0.000151
245	C	0.464943	0.938882	0.704728
246	C	0.431547	0.884011	0.698173
247	H	0.418612	0.859282	0.725231
248	C	0.515472	0.027585	0.672149
249	C	0.564479	0.113379	0.972685
250	C	0.582766	0.137494	0.681409
251	C	0.566283	0.104526	0.719473
252	H	0.422516	0.885569	0.919916
253	N	0.532198	0.060318	0.969563
254	C	0.532327	0.04937	0.715414
255	C	0.515048	0.015667	0.752915
256	C	0.481595	0.960867	0.747617
257	H	0.526757	0.030707	0.784321
258	H	0.469654	0.937178	0.775281
259	H	0.578895	0.120797	0.750463
260	H	0.57566	0.135185	0.943984
261	C	0.616826	0.191317	0.685664
262	C	0.381694	0.809527	0.981102
263	H	0.645514	0.204129	0.708363
264	H	0.353065	0.798134	0.958496
265	C	0.136627	0.552233	0.988186
266	C	0.101002	0.534508	0.951942
267	N	0.048501	0.514244	0.959006
268	C	0.027032	0.509301	0.000149
269	C	0.0607	0.525978	0.704728
270	C	0.115572	0.547456	0.69818
271	H	0.140299	0.559249	0.725238
272	C	0.971997	0.487799	0.672142
273	C	0.886206	0.451012	0.972672
274	C	0.862088	0.445183	0.681392
275	C	0.895048	0.461662	0.71946
276	H	0.114027	0.536869	0.919923
277	N	0.939271	0.471794	0.969553
278	C	0.950208	0.482867	0.715404
279	C	0.983903	0.499287	0.752908
280	C	0.038711	0.520643	0.747613
281	H	0.96886	0.495958	0.784315
282	H	0.062395	0.532388	0.775281
283	H	0.878775	0.458008	0.750449
284	H	0.864406	0.440394	0.943971
285	C	0.808264	0.425425	0.685644
286	C	0.19006	0.572086	0.981115
287	H	0.795444	0.44128	0.708353
288	H	0.201453	0.554843	0.958516
