data_C216H153N15_2018-02-15_10:40:44
#******************************************
#
# CIF file created by Zeo++
# Zeo++ is an open source package to
# analyze microporous materials
#
#*******************************************

_cell_length_a		32.3603   
_cell_length_b		32.3604   
_cell_length_c		29.0478   
_cell_angle_alpha		90   
_cell_angle_beta		90   
_cell_angle_gamma		120   

_symmetry_space_group_name_H-M		'P1'
_symmetry_Int_Tables_number		1
_symmetry_cell_setting		Monoclinic

loop_
_symmetry_equiv_pos_as_xyz
'+x,+y,+z'

loop_
_atom_site_label
_atom_site_type_symbol
_atom_site_fract_x
_atom_site_fract_y
_atom_site_fract_z
1	C	0.307187	0.657601	0.015946
2	C	0.281218	0.655785	0.976249
3	C	0.230909	0.630672	0.976542
4	C	0.204782	0.606475	0.016483
5	C	0.231348	0.608563	0.05614
6	C	0.281653	0.633662	0.055903
7	H	0.298954	0.672588	0.94677
8	H	0.213463	0.629583	0.946794
9	H	0.299699	0.634789	0.085216
10	H	0.21424	0.592506	0.086112
11	C	0.050749	0.531317	0.019549
12	C	0.07677	0.511235	0.039117
13	C	0.127063	0.53582	0.038149
14	C	0.153484	0.581151	0.016921
15	C	0.127192	0.600588	0.329739
16	C	0.076898	0.576199	0.330981
17	H	0.059173	0.478382	0.054467
18	H	0.144267	0.519717	0.052567
19	H	0.144539	0.633537	0.314604
20	H	0.05945	0.592038	0.316501
21	H	0.02819	0.525133	0.108874
22	C	0.307187	0.657601	0.349279
23	C	0.281218	0.655785	0.309582
24	C	0.230909	0.630672	0.309875
25	C	0.204782	0.606475	0.349816
26	C	0.231348	0.608563	0.389475
27	C	0.281653	0.633662	0.389238
28	H	0.298954	0.672588	0.280105
29	H	0.213463	0.629583	0.280128
30	H	0.299699	0.634789	0.418551
31	H	0.21424	0.592506	0.419446
32	C	0.050749	0.531317	0.352884
33	C	0.07677	0.511235	0.372451
34	C	0.127063	0.53582	0.371484
35	C	0.153484	0.581151	0.350254
36	C	0.127192	0.600588	0.663072
37	C	0.076898	0.576199	0.664315
38	H	0.059173	0.478382	0.387802
39	H	0.144267	0.519717	0.385902
40	H	0.144539	0.633537	0.647939
41	H	0.05945	0.592038	0.649835
42	H	0.02819	0.525133	0.442209
43	C	0.307187	0.657601	0.682612
44	C	0.281218	0.655785	0.642916
45	C	0.230909	0.630672	0.643208
46	C	0.204782	0.606475	0.683149
47	C	0.231348	0.608563	0.722808
48	C	0.281653	0.633662	0.722571
49	H	0.298954	0.672588	0.613437
50	H	0.213463	0.629583	0.613461
51	H	0.299699	0.634789	0.751884
52	H	0.21424	0.592506	0.752779
53	C	0.050749	0.531317	0.686217
54	C	0.07677	0.511235	0.705785
55	C	0.127063	0.53582	0.704817
56	C	0.153484	0.581151	0.683587
57	C	0.127192	0.600588	0.996405
58	C	0.076898	0.576199	0.997648
59	H	0.059173	0.478382	0.721135
60	H	0.144267	0.519717	0.719235
61	H	0.144539	0.633537	0.981272
62	H	0.05945	0.592038	0.983169
63	H	0.02819	0.525133	0.775542
64	N	0.357905	0.683043	0.015674
65	C	0.383351	0.657769	0.015939
66	C	0.383173	0.733759	0.015939
67	C	0.385095	0.633548	0.976266
68	C	0.410202	0.608345	0.976559
69	C	0.432468	0.631046	0.056105
70	C	0.407365	0.656249	0.05587
71	C	0.384798	0.759293	0.055904
72	C	0.410004	0.809598	0.05614
73	C	0.432474	0.810037	0.976514
74	C	0.407286	0.759725	0.976225
75	H	0.411229	0.591924	0.946832
76	H	0.368224	0.634411	0.946811
77	H	0.406292	0.67322	0.085166
78	H	0.36792	0.741248	0.085231
79	H	0.411097	0.826705	0.086127
80	H	0.406346	0.741991	0.946746
81	H	0.407328	0.519096	0.314792
82	H	0.408267	0.896682	0.052662
83	N	0.357905	0.683043	0.349007
84	C	0.383351	0.657769	0.349272
85	C	0.383173	0.733759	0.349269
86	C	0.385095	0.633548	0.3096
87	C	0.410202	0.608345	0.309893
88	C	0.432468	0.631046	0.389437
89	C	0.407365	0.656249	0.389203
90	C	0.384798	0.759293	0.389238
91	C	0.410004	0.809598	0.389472
92	C	0.432474	0.810037	0.309848
93	C	0.407286	0.759725	0.309559
94	H	0.411229	0.591924	0.280166
95	H	0.368224	0.634411	0.280146
96	H	0.406292	0.67322	0.4185
97	H	0.36792	0.741248	0.418565
98	H	0.411097	0.826705	0.41946
99	H	0.406346	0.741991	0.28008
100	H	0.407328	0.519096	0.648124
101	H	0.408267	0.896682	0.385995
102	N	0.357905	0.683043	0.68234
103	C	0.383351	0.657769	0.682606
104	C	0.383173	0.733759	0.682602
105	C	0.385095	0.633548	0.642933
106	C	0.410202	0.608345	0.643226
107	C	0.432468	0.631046	0.72277
108	C	0.407365	0.656249	0.722536
109	C	0.384798	0.759293	0.722571
110	C	0.410004	0.809598	0.722808
111	C	0.432474	0.810037	0.643181
112	C	0.407286	0.759725	0.642892
113	H	0.411229	0.591924	0.613499
114	H	0.368224	0.634411	0.613478
115	H	0.406292	0.67322	0.751833
116	H	0.36792	0.741248	0.751898
117	H	0.411097	0.826705	0.752793
118	H	0.406346	0.741991	0.613413
119	H	0.407328	0.519096	0.981458
120	H	0.408267	0.896682	0.719331
121	C	0.434481	0.606497	0.016472
122	C	0.434452	0.836164	0.016471
123	H	0.448595	0.630065	0.086055
124	H	0.448829	0.827479	0.946766
125	C	0.549028	0.489297	0.063039
126	C	0.534375	0.50123	0.021163
127	C	0.545594	0.486964	0.312476
128	H	0.535581	0.494882	0.28177
129	C	0.509655	0.527642	0.019558
130	C	0.52979	0.573801	0.039005
131	C	0.505211	0.599514	0.038012
132	C	0.459811	0.580531	0.01691
133	C	0.440318	0.534743	0.329851
134	C	0.464718	0.508848	0.331086
135	H	0.521336	0.632848	0.052366
136	H	0.448839	0.475517	0.316703
137	N	0.537246	0.498571	0.105289
138	H	0.546532	0.488973	0.133406
139	H	0.516159	0.511606	0.10891
140	C	0.551782	0.067919	0.063036
141	C	0.539767	0.041335	0.021155
142	C	0.553944	0.066822	0.312466
143	H	0.545969	0.048894	0.281756
144	C	0.513344	0.990199	0.019556
145	C	0.467269	0.964179	0.039177
146	C	0.441553	0.913888	0.038199
147	C	0.460431	0.887461	0.016914
148	C	0.506136	0.913756	0.329686
149	C	0.532049	0.96405	0.330937
150	H	0.452033	0.981774	0.05457
151	H	0.521711	0.896411	0.314491
152	N	0.542595	0.046856	0.105283
153	H	0.52993	0.012782	0.108837
154	C	0.434481	0.606497	0.349806
155	C	0.434452	0.836164	0.349806
156	H	0.448595	0.630065	0.419388
157	H	0.448829	0.827479	0.2801
158	C	0.549028	0.489297	0.396371
159	C	0.534375	0.50123	0.354498
160	C	0.545594	0.486964	0.645811
161	H	0.535581	0.494882	0.615103
162	C	0.509655	0.527642	0.352891
163	C	0.52979	0.573801	0.372338
164	C	0.505211	0.599514	0.371346
165	C	0.459811	0.580531	0.350243
166	C	0.440318	0.534743	0.663186
167	C	0.464718	0.508848	0.664418
168	H	0.521336	0.632848	0.385699
169	H	0.448839	0.475517	0.650039
170	N	0.537246	0.498571	0.438622
171	H	0.546532	0.488973	0.466741
172	H	0.516159	0.511606	0.442243
173	C	0.551782	0.067919	0.396371
174	C	0.539767	0.041335	0.354488
175	C	0.553944	0.066822	0.645801
176	H	0.545969	0.048894	0.615089
177	C	0.513344	0.990199	0.352891
178	C	0.467269	0.964179	0.37251
179	C	0.441553	0.913888	0.371532
180	C	0.460431	0.887461	0.350247
181	C	0.506136	0.913756	0.663021
182	C	0.532049	0.96405	0.66427
183	H	0.452033	0.981774	0.387905
184	H	0.521711	0.896411	0.647825
185	N	0.542595	0.046856	0.438618
186	H	0.52993	0.012782	0.442171
187	C	0.434481	0.606497	0.683139
188	C	0.434452	0.836164	0.683139
189	H	0.448595	0.630065	0.752721
190	H	0.448829	0.827479	0.613433
191	C	0.549028	0.489297	0.729707
192	C	0.534375	0.50123	0.687831
193	C	0.545594	0.486964	0.979144
194	H	0.535581	0.494882	0.948436
195	C	0.509655	0.527642	0.686224
196	C	0.52979	0.573801	0.705671
197	C	0.505211	0.599514	0.704679
198	C	0.459811	0.580531	0.683576
199	C	0.440318	0.534743	0.996519
200	C	0.464718	0.508848	0.997755
201	H	0.521336	0.632848	0.719032
202	H	0.448839	0.475517	0.983372
203	N	0.537246	0.498571	0.771955
204	H	0.546532	0.488973	0.800074
205	H	0.516159	0.511606	0.775576
206	C	0.551782	0.067919	0.729704
207	C	0.539767	0.041335	0.687821
208	C	0.553944	0.066822	0.979134
209	H	0.545969	0.048894	0.948422
210	C	0.513344	0.990199	0.686224
211	C	0.467269	0.964179	0.705843
212	C	0.441553	0.913888	0.704865
213	C	0.460431	0.887461	0.68358
214	C	0.506136	0.913756	0.996354
215	C	0.532049	0.96405	0.997603
216	H	0.452033	0.981774	0.721238
217	H	0.521711	0.896411	0.981158
218	N	0.542595	0.046856	0.771951
219	H	0.52993	0.012782	0.775504
220	H	0.552563	0.065778	0.133368
221	H	0.552563	0.065778	0.466703
222	H	0.552563	0.065778	0.800036
223	N	0.691235	0.349716	0.015598
224	C	0.665221	0.374621	0.016297
225	C	0.666334	0.298794	0.016297
226	C	0.742158	0.375734	0.016293
227	C	0.767218	0.407549	0.052525
228	C	0.817499	0.433443	0.053043
229	C	0.844975	0.427841	0.01805
230	C	0.819179	0.395327	0.982074
231	C	0.768873	0.370203	0.980907
232	C	0.633439	0.367898	0.052551
233	C	0.607537	0.39228	0.053066
234	C	0.613118	0.425333	0.018057
235	C	0.6456	0.432023	0.98206
236	C	0.670726	0.406842	0.980893
237	C	0.634088	0.272077	0.98091
238	C	0.608903	0.22177	0.982084
239	C	0.61563	0.195978	0.018057
240	C	0.648719	0.223455	0.053039
241	C	0.673094	0.273738	0.052527
242	H	0.58381	0.384869	0.079335
243	H	0.628489	0.344543	0.078553
244	H	0.693811	0.412715	0.954361
245	H	0.652063	0.456098	0.956354
246	H	0.748813	0.412523	0.07851
247	H	0.833816	0.457215	0.079279
248	H	0.628152	0.289285	0.954416
249	H	0.584778	0.204157	0.956413
250	H	0.656169	0.207143	0.079285
251	H	0.696475	0.292144	0.078512
252	H	0.751663	0.347081	0.954399
253	H	0.836794	0.388833	0.956392
254	C	0.587019	0.45081	0.019043
255	C	0.575628	0.465272	0.060991
256	C	0.570971	0.462139	0.311493
257	H	0.577043	0.451841	0.280119
258	H	0.562684	0.589101	0.054276
259	H	0.587114	0.458282	0.091263
260	C	0.590156	0.144401	0.019041
261	C	0.575781	0.118543	0.060991
262	C	0.578761	0.117024	0.311485
263	H	0.588992	0.133394	0.280106
264	H	0.582818	0.137017	0.091269
265	H	0.565306	0.981499	0.316393
266	C	0.896551	0.453947	0.019033
267	C	0.922408	0.465408	0.060983
268	C	0.97303	0.492023	0.06303
269	C	0.999619	0.506611	0.021151
270	C	0.974134	0.495313	0.312461
271	C	0.923931	0.469918	0.311477
272	H	0.992062	0.505272	0.281753
273	H	0.907562	0.463806	0.2801
274	H	0.903935	0.453968	0.091261
275	N	0.994097	0.503881	0.105274
276	H	0.975183	0.494778	0.133371
277	N	0.691235	0.349716	0.348932
278	C	0.665221	0.374621	0.34963
279	C	0.666334	0.298794	0.34963
280	C	0.742158	0.375734	0.349624
281	C	0.767218	0.407549	0.385857
282	C	0.817499	0.433443	0.386377
283	C	0.844975	0.427841	0.351383
284	C	0.819179	0.395327	0.315407
285	C	0.768873	0.370203	0.314239
286	C	0.633439	0.367898	0.385884
287	C	0.607537	0.39228	0.386401
288	C	0.613118	0.425333	0.35139
289	C	0.6456	0.432023	0.315393
290	C	0.670726	0.406842	0.314227
291	C	0.634088	0.272077	0.314245
292	C	0.608903	0.22177	0.315418
293	C	0.61563	0.195978	0.35139
294	C	0.648719	0.223455	0.386373
295	C	0.673094	0.273738	0.38586
296	H	0.58381	0.384869	0.412668
297	H	0.628489	0.344543	0.411886
298	H	0.693811	0.412715	0.287693
299	H	0.652063	0.456098	0.289688
300	H	0.748813	0.412523	0.411842
301	H	0.833816	0.457215	0.412613
302	H	0.628152	0.289285	0.287749
303	H	0.584778	0.204157	0.289746
304	H	0.656169	0.207143	0.41262
305	H	0.696475	0.292144	0.411845
306	H	0.751663	0.347081	0.28773
307	H	0.836794	0.388833	0.289724
308	C	0.587019	0.45081	0.352378
309	C	0.575628	0.465272	0.394326
310	C	0.570971	0.462139	0.644826
311	H	0.577043	0.451841	0.613454
312	H	0.562684	0.589101	0.387609
313	H	0.587114	0.458282	0.424596
314	C	0.590156	0.144401	0.352374
315	C	0.575781	0.118543	0.394326
316	C	0.578761	0.117024	0.64482
317	H	0.588992	0.133394	0.61344
318	H	0.582818	0.137017	0.424603
319	H	0.565306	0.981499	0.649725
320	C	0.896551	0.453947	0.352367
321	C	0.922408	0.465408	0.394315
322	C	0.97303	0.492023	0.396364
323	C	0.999619	0.506611	0.354484
324	C	0.974134	0.495313	0.645794
325	C	0.923931	0.469918	0.644813
326	H	0.992062	0.505272	0.615086
327	H	0.907562	0.463806	0.613433
328	H	0.903935	0.453968	0.424593
329	N	0.994097	0.503881	0.438608
330	H	0.975183	0.494778	0.466706
331	N	0.691235	0.349716	0.682265
332	C	0.665221	0.374621	0.682964
333	C	0.666334	0.298794	0.682964
334	C	0.742158	0.375734	0.682957
335	C	0.767218	0.407549	0.71919
336	C	0.817499	0.433443	0.71971
337	C	0.844975	0.427841	0.684716
338	C	0.819179	0.395327	0.648741
339	C	0.768873	0.370203	0.647574
340	C	0.633439	0.367898	0.719218
341	C	0.607537	0.39228	0.719734
342	C	0.613118	0.425333	0.684723
343	C	0.6456	0.432023	0.648727
344	C	0.670726	0.406842	0.64756
345	C	0.634088	0.272077	0.647577
346	C	0.608903	0.22177	0.648751
347	C	0.61563	0.195978	0.684723
348	C	0.648719	0.223455	0.719706
349	C	0.673094	0.273738	0.719193
350	H	0.58381	0.384869	0.746001
351	H	0.628489	0.344543	0.74522
352	H	0.693811	0.412715	0.621028
353	H	0.652063	0.456098	0.623021
354	H	0.748813	0.412523	0.745178
355	H	0.833816	0.457215	0.745946
356	H	0.628152	0.289285	0.621083
357	H	0.584778	0.204157	0.62308
358	H	0.656169	0.207143	0.745953
359	H	0.696475	0.292144	0.745178
360	H	0.751663	0.347081	0.621062
361	H	0.836794	0.388833	0.623059
362	C	0.587019	0.45081	0.685711
363	C	0.575628	0.465272	0.727659
364	C	0.570971	0.462139	0.97816
365	H	0.577043	0.451841	0.946787
366	H	0.562684	0.589101	0.720942
367	H	0.587114	0.458282	0.75793
368	C	0.590156	0.144401	0.685707
369	C	0.575781	0.118543	0.727659
370	C	0.578761	0.117024	0.978153
371	H	0.588992	0.133394	0.946773
372	H	0.582818	0.137017	0.757936
373	H	0.565306	0.981499	0.983062
374	C	0.896551	0.453947	0.6857
375	C	0.922408	0.465408	0.727652
376	C	0.97303	0.492023	0.729697
377	C	0.999619	0.506611	0.687818
378	C	0.974134	0.495313	0.979127
379	C	0.923931	0.469918	0.978146
380	H	0.992062	0.505272	0.948419
381	H	0.907562	0.463806	0.946766
382	H	0.903935	0.453968	0.757926
383	N	0.994097	0.503881	0.771941
384	H	0.975183	0.494778	0.800039
