data_C252H144N36_2018-02-15_10:36:38
#******************************************
#
# CIF file created by Zeo++
# Zeo++ is an open source package to
# analyze microporous materials
#
#*******************************************

_cell_length_a		34.0279   
_cell_length_b		34.0301   
_cell_length_c		29.392   
_cell_angle_alpha		90   
_cell_angle_beta		90   
_cell_angle_gamma		120.007   

_symmetry_space_group_name_H-M		'P1'
_symmetry_Int_Tables_number		1
_symmetry_cell_setting		Monoclinic

loop_
_symmetry_equiv_pos_as_xyz
'+x,+y,+z'

loop_
_atom_site_label
_atom_site_type_symbol
_atom_site_fract_x
_atom_site_fract_y
_atom_site_fract_z
1	C	0.98882	0.962127	0.010259
2	N	0.966219	0.985728	0.010225
3	C	0.988815	0.031941	0.010283
4	N	0.035031	0.054528	0.010367
5	C	0.058646	0.031937	0.010397
6	N	0.03503	0.985728	0.01035
7	C	0.467849	0.271081	0.015451
8	N	0.421653	0.247757	0.015093
9	C	0.397989	0.201592	0.01052
10	N	0.421646	0.179088	0.005955
11	C	0.467843	0.201956	0.005608
12	N	0.490053	0.247622	0.010535
13	C	0.749722	0.201983	0.01506
14	N	0.773058	0.179129	0.014785
15	C	0.819227	0.201637	0.010221
16	N	0.841718	0.247799	0.005611
17	C	0.818841	0.271111	0.0052
18	N	0.773171	0.247645	0.010113
19	C	0.818868	0.552939	0.015187
20	N	0.841733	0.599134	0.014812
21	C	0.819213	0.622782	0.010313
22	N	0.773032	0.599113	0.005856
23	C	0.749706	0.552919	0.005574
24	N	0.773184	0.530726	0.010398
25	C	0.349703	0.177448	0.010519
26	C	0.324922	0.186834	0.043172
27	C	0.277037	0.162266	0.043735
28	C	0.252362	0.128786	0.010509
29	C	0.277037	0.119962	0.310634
30	C	0.324921	0.143273	0.311204
31	H	0.260273	0.095832	0.286207
32	H	0.341583	0.13589	0.286682
33	C	0.203966	0.104601	0.343825
34	C	0.179276	0.073843	0.045837
35	C	0.131392	0.049226	0.04533
36	C	0.106774	0.056009	0.343774
37	C	0.131436	0.087435	0.308913
38	C	0.17932	0.110688	0.308451
39	H	0.196028	0.068475	0.07184
40	H	0.114617	0.027104	0.071331
41	H	0.114697	0.092795	0.282887
42	H	0.341584	0.210905	0.067674
43	H	0.196104	0.132832	0.282472
44	H	0.260273	0.169669	0.068128
45	C	0.84338	0.177503	0.010255
46	C	0.833675	0.143027	0.042639
47	C	0.858213	0.119685	0.043212
48	C	0.892025	0.128827	0.010279
49	C	0.9012	0.162643	0.310676
50	C	0.877862	0.187184	0.311217
51	H	0.925565	0.170227	0.286458
52	H	0.885505	0.211473	0.286903
53	C	0.916194	0.104625	0.343614
54	C	0.947495	0.111271	0.045241
55	C	0.972088	0.087988	0.044741
56	C	0.964755	0.056015	0.343614
57	C	0.932795	0.048709	0.309146
58	C	0.909509	0.073302	0.308667
59	H	0.95329	0.133834	0.070919
60	H	0.99462	0.093765	0.070453
61	H	0.926992	0.026164	0.283443
62	H	0.809378	0.135394	0.066942
63	H	0.88698	0.067553	0.282966
64	H	0.850593	0.095306	0.067422
65	C	0.843351	0.671064	0.010283
66	C	0.877464	0.695866	0.042979
67	C	0.900753	0.743747	0.04353
68	C	0.892004	0.768414	0.010242
69	C	0.858564	0.7437	0.31032
70	C	0.833995	0.695815	0.310907
71	H	0.851202	0.760433	0.285857
72	H	0.809984	0.679137	0.28636
73	C	0.916187	0.816824	0.343567
74	C	0.91085	0.841498	0.046097
75	C	0.93409	0.889376	0.045642
76	C	0.96476	0.914015	0.343573
77	C	0.97081	0.889399	0.308166
78	C	0.946184	0.841518	0.307697
79	H	0.889263	0.824731	0.072465
80	H	0.929273	0.906132	0.072025
81	H	0.992393	0.90617	0.281791
82	H	0.884842	0.679222	0.067525
83	H	0.951043	0.824768	0.281342
84	H	0.924884	0.760518	0.067956
85	C	0.494942	0.181392	0.335647
86	C	0.526767	0.194234	0.29984
87	C	0.562722	0.185042	0.302039
88	C	0.568884	0.163933	0.340756
89	C	0.536163	0.150006	0.042646
90	C	0.499535	0.158311	0.040061
91	H	0.540147	0.135868	0.071741
92	H	0.478767	0.151077	0.067727
93	C	0.610651	0.163942	0.01329
94	C	0.629528	0.150212	0.311302
95	C	0.674486	0.158583	0.313875
96	C	0.702066	0.181421	0.018436
97	C	0.682983	0.194009	0.054341
98	C	0.637846	0.184836	0.052105
99	H	0.611513	0.13634	0.282088
100	H	0.688071	0.151564	0.286103
101	H	0.702737	0.212659	0.081137
102	H	0.525824	0.213114	0.273185
103	H	0.626482	0.197335	0.077388
104	H	0.586737	0.197837	0.276907
105	C	0.839396	0.318767	0.335215
106	C	0.82667	0.337869	0.299432
107	C	0.835932	0.383035	0.301677
108	C	0.856911	0.410192	0.340491
109	C	0.870738	0.391301	0.042372
110	C	0.862479	0.346389	0.039674
111	H	0.884786	0.40934	0.071532
112	H	0.869548	0.332789	0.067397
113	C	0.856937	0.451951	0.013134
114	C	0.870854	0.484725	0.311299
115	C	0.862598	0.521377	0.313997
116	C	0.839454	0.525856	0.01842
117	C	0.82665	0.493999	0.054195
118	C	0.835835	0.458046	0.051892
119	H	0.88496	0.480765	0.282165
120	H	0.869727	0.542111	0.286321
121	H	0.807704	0.494851	0.080832
122	H	0.807809	0.318096	0.272741
123	H	0.823031	0.43398	0.076976
124	H	0.823181	0.394335	0.276582
125	C	0.702028	0.525809	0.335662
126	C	0.682981	0.49402	0.299843
127	C	0.637828	0.458073	0.302118
128	C	0.610638	0.451907	0.340906
129	C	0.629511	0.48462	0.042799
130	C	0.674447	0.521241	0.040152
131	H	0.611443	0.480629	0.071938
132	H	0.688047	0.542006	0.067813
133	C	0.568891	0.410138	0.013505
134	C	0.536187	0.39126	0.311598
135	C	0.499588	0.346304	0.314223
136	C	0.494974	0.318747	0.018751
137	C	0.526728	0.337811	0.054591
138	C	0.562694	0.382946	0.052298
139	H	0.540249	0.409272	0.282404
140	H	0.478904	0.332712	0.286505
141	H	0.525692	0.318064	0.081363
142	H	0.70276	0.494966	0.27314
143	H	0.586627	0.394314	0.077516
144	H	0.626548	0.434061	0.276981
145	C	0.98882	0.962127	0.343594
146	N	0.966219	0.985728	0.34356
147	C	0.988815	0.031941	0.343614
148	N	0.035031	0.054528	0.343699
149	C	0.058646	0.031937	0.34373
150	N	0.03503	0.985728	0.343682
151	C	0.467849	0.271081	0.348786
152	N	0.421653	0.247757	0.348425
153	C	0.397989	0.201592	0.343852
154	N	0.421646	0.179088	0.339287
155	C	0.467843	0.201956	0.338943
156	N	0.490053	0.247622	0.343869
157	C	0.749722	0.201983	0.348394
158	N	0.773058	0.179129	0.348119
159	C	0.819227	0.201637	0.343556
160	N	0.841718	0.247799	0.338944
161	C	0.818841	0.271111	0.338535
162	N	0.773171	0.247645	0.343448
163	C	0.818868	0.552939	0.34852
164	N	0.841733	0.599134	0.348146
165	C	0.819213	0.622782	0.343648
166	N	0.773032	0.599113	0.339191
167	C	0.749706	0.552919	0.338907
168	N	0.773184	0.530726	0.34373
169	C	0.349703	0.177448	0.343852
170	C	0.324922	0.186834	0.376504
171	C	0.277037	0.162266	0.377069
172	C	0.252362	0.128786	0.343842
173	C	0.277037	0.119962	0.643968
174	C	0.324921	0.143273	0.644537
175	H	0.260273	0.095832	0.61954
176	H	0.341583	0.13589	0.620016
177	C	0.203966	0.104601	0.677158
178	C	0.179276	0.073843	0.379172
179	C	0.131392	0.049226	0.378665
180	C	0.106774	0.056009	0.677107
181	C	0.131436	0.087435	0.642247
182	C	0.17932	0.110688	0.641784
183	H	0.196028	0.068475	0.405172
184	H	0.114617	0.027104	0.404665
185	H	0.114697	0.092795	0.616219
186	H	0.341584	0.210905	0.401007
187	H	0.196104	0.132832	0.615804
188	H	0.260273	0.169669	0.40146
189	C	0.84338	0.177503	0.34359
190	C	0.833675	0.143027	0.37597
191	C	0.858213	0.119685	0.376545
192	C	0.892025	0.128827	0.343611
193	C	0.9012	0.162643	0.644009
194	C	0.877862	0.187184	0.64455
195	H	0.925565	0.170227	0.619792
196	H	0.885505	0.211473	0.620237
197	C	0.916194	0.104625	0.676947
198	C	0.947495	0.111271	0.378573
199	C	0.972088	0.087988	0.378076
200	C	0.964755	0.056015	0.676947
201	C	0.932795	0.048709	0.642478
202	C	0.909509	0.073302	0.641998
203	H	0.95329	0.133834	0.404253
204	H	0.99462	0.093765	0.403787
205	H	0.926992	0.026164	0.616777
206	H	0.809378	0.135394	0.400276
207	H	0.88698	0.067553	0.616301
208	H	0.850593	0.095306	0.400756
209	C	0.843351	0.671064	0.343618
210	C	0.877464	0.695866	0.376314
211	C	0.900753	0.743747	0.376865
212	C	0.892004	0.768414	0.343577
213	C	0.858564	0.7437	0.643652
214	C	0.833995	0.695815	0.644241
215	H	0.851202	0.760433	0.619189
216	H	0.809984	0.679137	0.619693
217	C	0.916187	0.816824	0.676899
218	C	0.91085	0.841498	0.37943
219	C	0.93409	0.889376	0.378974
220	C	0.96476	0.914015	0.676906
221	C	0.97081	0.889399	0.641498
222	C	0.946184	0.841518	0.641029
223	H	0.889263	0.824731	0.405798
224	H	0.929273	0.906132	0.405359
225	H	0.992393	0.90617	0.615124
226	H	0.884842	0.679222	0.400858
227	H	0.951043	0.824768	0.614675
228	H	0.924884	0.760518	0.40129
229	C	0.494942	0.181392	0.668982
230	C	0.526767	0.194234	0.633173
231	C	0.562722	0.185042	0.635371
232	C	0.568884	0.163933	0.674089
233	C	0.536163	0.150006	0.37598
234	C	0.499535	0.158311	0.373394
235	H	0.540147	0.135868	0.405073
236	H	0.478767	0.151077	0.401062
237	C	0.610651	0.163942	0.346622
238	C	0.629528	0.150212	0.644635
239	C	0.674486	0.158583	0.647207
240	C	0.702066	0.181421	0.35177
241	C	0.682983	0.194009	0.387674
242	C	0.637846	0.184836	0.385439
243	H	0.611513	0.13634	0.61542
244	H	0.688071	0.151564	0.619434
245	H	0.702737	0.212659	0.41447
246	H	0.525824	0.213114	0.606519
247	H	0.626482	0.197335	0.410721
248	H	0.586737	0.197837	0.610241
249	C	0.839396	0.318767	0.668546
250	C	0.82667	0.337869	0.632765
251	C	0.835932	0.383035	0.63501
252	C	0.856911	0.410192	0.673823
253	C	0.870738	0.391301	0.375705
254	C	0.862479	0.346389	0.373007
255	H	0.884786	0.40934	0.404866
256	H	0.869548	0.332789	0.400728
257	C	0.856937	0.451951	0.346465
258	C	0.870854	0.484725	0.644632
259	C	0.862598	0.521377	0.64733
260	C	0.839454	0.525856	0.351753
261	C	0.82665	0.493999	0.387528
262	C	0.835835	0.458046	0.385224
263	H	0.88496	0.480765	0.615498
264	H	0.869727	0.542111	0.619656
265	H	0.807704	0.494851	0.414164
266	H	0.807809	0.318096	0.606074
267	H	0.823031	0.43398	0.410309
268	H	0.823181	0.394335	0.609915
269	C	0.702028	0.525809	0.668996
270	C	0.682981	0.49402	0.633176
271	C	0.637828	0.458073	0.635449
272	C	0.610638	0.451907	0.674239
273	C	0.629511	0.48462	0.376133
274	C	0.674447	0.521241	0.373486
275	H	0.611443	0.480629	0.405271
276	H	0.688047	0.542006	0.401147
277	C	0.568891	0.410138	0.34684
278	C	0.536187	0.39126	0.644931
279	C	0.499588	0.346304	0.647554
280	C	0.494974	0.318747	0.352083
281	C	0.526728	0.337811	0.387926
282	C	0.562694	0.382946	0.385629
283	H	0.540249	0.409272	0.615736
284	H	0.478904	0.332712	0.619839
285	H	0.525692	0.318064	0.414695
286	H	0.70276	0.494966	0.606472
287	H	0.586627	0.394314	0.41085
288	H	0.626548	0.434061	0.610313
289	C	0.98882	0.962127	0.676926
290	N	0.966219	0.985728	0.676892
291	C	0.988815	0.031941	0.676947
292	N	0.035031	0.054528	0.677032
293	C	0.058646	0.031937	0.677062
294	N	0.03503	0.985728	0.677015
295	C	0.467849	0.271081	0.682118
296	N	0.421653	0.247757	0.681758
297	C	0.397989	0.201592	0.677185
298	N	0.421646	0.179088	0.672619
299	C	0.467843	0.201956	0.672275
300	N	0.490053	0.247622	0.677202
301	C	0.749722	0.201983	0.681727
302	N	0.773058	0.179129	0.681451
303	C	0.819227	0.201637	0.676889
304	N	0.841718	0.247799	0.672275
305	C	0.818841	0.271111	0.671867
306	N	0.773171	0.247645	0.67678
307	C	0.818868	0.552939	0.681853
308	N	0.841733	0.599134	0.681479
309	C	0.819213	0.622782	0.676981
310	N	0.773032	0.599113	0.672524
311	C	0.749706	0.552919	0.672241
312	N	0.773184	0.530726	0.677066
313	C	0.349703	0.177448	0.677185
314	C	0.324922	0.186834	0.709837
315	C	0.277037	0.162266	0.710401
316	C	0.252362	0.128786	0.677175
317	C	0.277037	0.119962	0.977301
318	C	0.324921	0.143273	0.977869
319	H	0.260273	0.095832	0.952872
320	H	0.341583	0.13589	0.953349
321	C	0.203966	0.104601	0.010492
322	C	0.179276	0.073843	0.712504
323	C	0.131392	0.049226	0.711997
324	C	0.106774	0.056009	0.01044
325	C	0.131436	0.087435	0.975579
326	C	0.17932	0.110688	0.975117
327	H	0.196028	0.068475	0.738508
328	H	0.114617	0.027104	0.737997
329	H	0.114697	0.092795	0.949552
330	H	0.341584	0.210905	0.73434
331	H	0.196104	0.132832	0.94914
332	H	0.260273	0.169669	0.734792
333	C	0.84338	0.177503	0.676923
334	C	0.833675	0.143027	0.709306
335	C	0.858213	0.119685	0.709878
336	C	0.892025	0.128827	0.676943
337	C	0.9012	0.162643	0.977342
338	C	0.877862	0.187184	0.977883
339	H	0.925565	0.170227	0.953124
340	H	0.885505	0.211473	0.95357
341	C	0.916194	0.104625	0.010279
342	C	0.947495	0.111271	0.711905
343	C	0.972088	0.087988	0.711409
344	C	0.964755	0.056015	0.010279
345	C	0.932795	0.048709	0.975811
346	C	0.909509	0.073302	0.975331
347	H	0.95329	0.133834	0.737586
348	H	0.99462	0.093765	0.73712
349	H	0.926992	0.026164	0.95011
350	H	0.809378	0.135394	0.733608
351	H	0.88698	0.067553	0.949633
352	H	0.850593	0.095306	0.734088
353	C	0.843351	0.671064	0.67695
354	C	0.877464	0.695866	0.709646
355	C	0.900753	0.743747	0.710197
356	C	0.892004	0.768414	0.676909
357	C	0.858564	0.7437	0.976984
358	C	0.833995	0.695815	0.977573
359	H	0.851202	0.760433	0.952522
360	H	0.809984	0.679137	0.953026
361	C	0.916187	0.816824	0.010232
362	C	0.91085	0.841498	0.712763
363	C	0.93409	0.889376	0.712307
364	C	0.96476	0.914015	0.010238
365	C	0.97081	0.889399	0.974831
366	C	0.946184	0.841518	0.974365
367	H	0.889263	0.824731	0.73913
368	H	0.929273	0.906132	0.738692
369	H	0.992393	0.90617	0.948456
370	H	0.884842	0.679222	0.73419
371	H	0.951043	0.824768	0.948007
372	H	0.924884	0.760518	0.734622
373	C	0.494942	0.181392	0.002315
374	C	0.526767	0.194234	0.966505
375	C	0.562722	0.185042	0.968703
376	C	0.568884	0.163933	0.007421
377	C	0.536163	0.150006	0.709313
378	C	0.499535	0.158311	0.706727
379	H	0.540147	0.135868	0.738406
380	H	0.478767	0.151077	0.734394
381	C	0.610651	0.163942	0.679954
382	C	0.629528	0.150212	0.977968
383	C	0.674486	0.158583	0.98054
384	C	0.702066	0.181421	0.685102
385	C	0.682983	0.194009	0.721006
386	C	0.637846	0.184836	0.718771
387	H	0.611513	0.13634	0.948756
388	H	0.688071	0.151564	0.95277
389	H	0.702737	0.212659	0.747803
390	H	0.525824	0.213114	0.939852
391	H	0.626482	0.197335	0.744054
392	H	0.586737	0.197837	0.943574
393	C	0.839396	0.318767	0.001879
394	C	0.82667	0.337869	0.966097
395	C	0.835932	0.383035	0.968343
396	C	0.856911	0.410192	0.007156
397	C	0.870738	0.391301	0.709037
398	C	0.862479	0.346389	0.706339
399	H	0.884786	0.40934	0.738198
400	H	0.869548	0.332789	0.734061
401	C	0.856937	0.451951	0.679801
402	C	0.870854	0.484725	0.977964
403	C	0.862598	0.521377	0.980662
404	C	0.839454	0.525856	0.685085
405	C	0.82665	0.493999	0.72086
406	C	0.835835	0.458046	0.718557
407	H	0.88496	0.480765	0.948831
408	H	0.869727	0.542111	0.952988
409	H	0.807704	0.494851	0.747497
410	H	0.807809	0.318096	0.939406
411	H	0.823031	0.43398	0.743642
412	H	0.823181	0.394335	0.943247
413	C	0.702028	0.525809	0.002328
414	C	0.682981	0.49402	0.966509
415	C	0.637828	0.458073	0.968785
416	C	0.610638	0.451907	0.007571
417	C	0.629511	0.48462	0.709466
418	C	0.674447	0.521241	0.706819
419	H	0.611443	0.480629	0.738603
420	H	0.688047	0.542006	0.734479
421	C	0.568891	0.410138	0.680172
422	C	0.536187	0.39126	0.978264
423	C	0.499588	0.346304	0.98089
424	C	0.494974	0.318747	0.685418
425	C	0.526728	0.337811	0.721258
426	C	0.562694	0.382946	0.718965
427	H	0.540249	0.409272	0.949069
428	H	0.478904	0.332712	0.953172
429	H	0.525692	0.318064	0.748027
430	H	0.70276	0.494966	0.939804
431	H	0.586627	0.394314	0.744183
432	H	0.626548	0.434061	0.943649
