data_C144H135N45_2018-02-15_10:33:17
#******************************************
#
# CIF file created by Zeo++
# Zeo++ is an open source package to
# analyze microporous materials
#
#*******************************************

_cell_length_a		29.0289   
_cell_length_b		29.0289   
_cell_length_c		30.0318   
_cell_angle_alpha		90   
_cell_angle_beta		90   
_cell_angle_gamma		120   

_symmetry_space_group_name_H-M		'P1'
_symmetry_Int_Tables_number		1
_symmetry_cell_setting		Monoclinic

loop_
_symmetry_equiv_pos_as_xyz
'+x,+y,+z'

loop_
_atom_site_label
_atom_site_type_symbol
_atom_site_fract_x
_atom_site_fract_y
_atom_site_fract_z
1	C	0.357881	0.720396	0.052684
2	N	0.386253	0.694759	0.052798
3	C	0.36144	0.640801	0.052705
4	N	0.307433	0.612432	0.052803
5	C	0.278288	0.637241	0.052689
6	N	0.303925	0.691251	0.052782
7	C	0.392905	0.613717	0.386694
8	H	0.365916	0.570884	0.390596
9	H	0.419348	0.627667	0.082283
10	C	0.219738	0.605777	0.053324
11	H	0.20389	0.632762	0.39053
12	H	0.207231	0.579345	0.082252
13	C	0.384965	0.778945	0.05332
14	H	0.427796	0.794792	0.390546
15	H	0.371024	0.791451	0.082239
16	C	0.631318	0.279155	0.983579
17	N	0.61293	0.313942	0.983545
18	C	0.646787	0.367368	0.983589
19	N	0.699958	0.385755	0.983552
20	C	0.719532	0.3519	0.983585
21	N	0.684743	0.298726	0.983542
22	C	0.627646	0.405871	0.315855
23	H	0.645603	0.431933	0.287077
24	H	0.641993	0.430059	0.012725
25	C	0.777171	0.37104	0.982516
26	H	0.785277	0.353093	0.287064
27	H	0.787012	0.356679	0.012713
28	C	0.592817	0.221513	0.98251
29	H	0.566755	0.213407	0.287065
30	H	0.568623	0.211673	0.012713
31	C	0.548976	0.41595	0.317201
32	C	0.519799	0.413428	0.022145
33	C	0.498373	0.44747	0.02782
34	C	0.507024	0.485151	0.993691
35	C	0.535707	0.487049	0.28834
36	C	0.556431	0.452808	0.283453
37	H	0.542285	0.513835	0.263484
38	H	0.576989	0.454801	0.255172
39	C	0.48825	0.521711	0.997008
40	C	0.509764	0.562785	0.029128
41	C	0.489539	0.597579	0.033731
42	C	0.4475	0.591938	0.006264
43	C	0.427185	0.552069	0.306605
44	C	0.447376	0.517232	0.301942
45	H	0.539644	0.567069	0.049885
46	H	0.50489	0.626457	0.057703
47	H	0.396597	0.547348	0.28658
48	H	0.513991	0.386042	0.046216
49	H	0.430987	0.487657	0.278548
50	N	0.469478	0.441893	0.0652
51	H	0.463596	0.41535	0.087701
52	H	0.452011	0.462578	0.069969
53	N	0.423785	0.623884	0.011484
54	H	0.452757	0.663244	0.009203
55	N	0.568746	0.380399	0.313624
56	H	0.554748	0.359106	0.28458
57	C	0.582729	0.132762	0.31719
58	C	0.58523	0.106094	0.022132
59	C	0.55118	0.050628	0.027801
60	C	0.513516	0.021606	0.993658
61	C	0.51164	0.048403	0.288306
62	C	0.545888	0.103368	0.28343
63	H	0.484862	0.0282	0.263441
64	H	0.543905	0.121939	0.255148
65	C	0.476945	0.966273	0.996964
66	C	0.435861	0.946711	0.029078
67	C	0.401045	0.891694	0.033658
68	C	0.406708	0.855298	0.006207
69	C	0.446561	0.874852	0.306534
70	C	0.481435	0.929877	0.301907
71	H	0.431574	0.972308	0.049832
72	H	0.372195	0.878162	0.057655
73	H	0.451335	0.848985	0.286552
74	H	0.612607	0.127667	0.046213
75	H	0.511012	0.943063	0.278514
76	N	0.556742	0.027298	0.065179
77	H	0.583278	0.047954	0.087688
78	H	0.536054	0.989145	0.069941
79	N	0.374781	0.799637	0.011438
80	H	0.335417	0.789235	0.00916
81	N	0.618283	0.188081	0.313622
82	H	0.639587	0.19538	0.284582
83	C	0.865922	0.449702	0.317199
84	C	0.892595	0.478867	0.022143
85	C	0.948061	0.500287	0.027802
86	C	0.977082	0.491651	0.993655
87	C	0.950284	0.462995	0.288296
88	C	0.895315	0.442271	0.283427
89	H	0.970485	0.456424	0.263428
90	H	0.876744	0.421726	0.255144
91	C	0.032411	0.510406	0.996958
92	C	0.051972	0.48889	0.029079
93	C	0.106989	0.509105	0.033678
94	C	0.143391	0.551146	0.006213
95	C	0.123837	0.571437	0.306533
96	C	0.068811	0.551274	0.301888
97	H	0.026377	0.459049	0.049868
98	H	0.120517	0.493803	0.057692
99	H	0.149708	0.602042	0.286522
100	H	0.87102	0.484654	0.046232
101	H	0.05563	0.567654	0.278481
102	N	0.971394	0.529157	0.06519
103	H	0.950751	0.53512	0.087657
104	H	0.009562	0.546723	0.069897
105	N	0.199049	0.574882	0.01145
106	H	0.209449	0.545916	0.009189
107	N	0.810603	0.42994	0.313637
108	H	0.803304	0.443954	0.284603
109	C	0.357881	0.720396	0.386018
110	N	0.386253	0.694759	0.386131
111	C	0.36144	0.640801	0.386038
112	N	0.307433	0.612432	0.386138
113	C	0.278288	0.637241	0.386021
114	N	0.303925	0.691251	0.386114
115	C	0.392905	0.613717	0.720028
116	H	0.365916	0.570884	0.72393
117	H	0.419348	0.627667	0.415617
118	C	0.219738	0.605777	0.386657
119	H	0.20389	0.632762	0.723864
120	H	0.207231	0.579345	0.415587
121	C	0.384965	0.778945	0.386654
122	H	0.427796	0.794792	0.723877
123	H	0.371024	0.791451	0.415573
124	C	0.631318	0.279155	0.316912
125	N	0.61293	0.313942	0.316879
126	C	0.646787	0.367368	0.316924
127	N	0.699958	0.385755	0.316884
128	C	0.719532	0.3519	0.31692
129	N	0.684743	0.298726	0.316876
130	C	0.627646	0.405871	0.649189
131	H	0.645603	0.431933	0.62041
132	H	0.641993	0.430059	0.346057
133	C	0.777171	0.37104	0.31585
134	H	0.785277	0.353093	0.620396
135	H	0.787012	0.356679	0.346047
136	C	0.592817	0.221513	0.315845
137	H	0.566755	0.213407	0.620396
138	H	0.568623	0.211673	0.346047
139	C	0.548976	0.41595	0.650535
140	C	0.519799	0.413428	0.355477
141	C	0.498373	0.44747	0.361154
142	C	0.507024	0.485151	0.327025
143	C	0.535707	0.487049	0.621672
144	C	0.556431	0.452808	0.616787
145	H	0.542285	0.513835	0.596818
146	H	0.576989	0.454801	0.588507
147	C	0.48825	0.521711	0.330341
148	C	0.509764	0.562785	0.36246
149	C	0.489539	0.597579	0.367065
150	C	0.4475	0.591938	0.339597
151	C	0.427185	0.552069	0.639939
152	C	0.447376	0.517232	0.635274
153	H	0.539644	0.567069	0.383218
154	H	0.50489	0.626457	0.391036
155	H	0.396597	0.547348	0.619914
156	H	0.513991	0.386042	0.379548
157	H	0.430987	0.487657	0.611882
158	N	0.469478	0.441893	0.398531
159	H	0.463596	0.41535	0.421034
160	H	0.452011	0.462578	0.403303
161	N	0.423785	0.623884	0.344818
162	H	0.452757	0.663244	0.342537
163	N	0.568746	0.380399	0.646958
164	H	0.554748	0.359106	0.617912
165	C	0.582729	0.132762	0.650525
166	C	0.58523	0.106094	0.355467
167	C	0.55118	0.050628	0.361134
168	C	0.513516	0.021606	0.326992
169	C	0.51164	0.048403	0.621638
170	C	0.545888	0.103368	0.616764
171	H	0.484862	0.0282	0.596775
172	H	0.543905	0.121939	0.58848
173	C	0.476945	0.966273	0.330297
174	C	0.435861	0.946711	0.36241
175	C	0.401045	0.891694	0.366991
176	C	0.406708	0.855298	0.33954
177	C	0.446561	0.874852	0.639866
178	C	0.481435	0.929877	0.635241
179	H	0.431574	0.972308	0.383164
180	H	0.372195	0.878162	0.390989
181	H	0.451335	0.848985	0.619884
182	H	0.612607	0.127667	0.379545
183	H	0.511012	0.943063	0.611849
184	N	0.556742	0.027298	0.398511
185	H	0.583278	0.047954	0.421021
186	H	0.536054	0.989145	0.403273
187	N	0.374781	0.799637	0.344772
188	H	0.335417	0.789235	0.342494
189	N	0.618283	0.188081	0.646955
190	H	0.639587	0.19538	0.617916
191	C	0.865922	0.449702	0.650531
192	C	0.892595	0.478867	0.355477
193	C	0.948061	0.500287	0.361134
194	C	0.977082	0.491651	0.326987
195	C	0.950284	0.462995	0.621628
196	C	0.895315	0.442271	0.61676
197	H	0.970485	0.456424	0.596761
198	H	0.876744	0.421726	0.588477
199	C	0.032411	0.510406	0.330292
200	C	0.051972	0.48889	0.362413
201	C	0.106989	0.509105	0.367011
202	C	0.143391	0.551146	0.339547
203	C	0.123837	0.571437	0.639866
204	C	0.068811	0.551274	0.635221
205	H	0.026377	0.459049	0.383201
206	H	0.120517	0.493803	0.391026
207	H	0.149708	0.602042	0.619854
208	H	0.87102	0.484654	0.379565
209	H	0.05563	0.567654	0.611816
210	N	0.971394	0.529157	0.398525
211	H	0.950751	0.53512	0.420991
212	H	0.009562	0.546723	0.40323
213	N	0.199049	0.574882	0.344782
214	H	0.209449	0.545916	0.342524
215	N	0.810603	0.42994	0.646968
216	H	0.803304	0.443954	0.617936
217	C	0.357881	0.720396	0.719348
218	N	0.386253	0.694759	0.719465
219	C	0.36144	0.640801	0.719372
220	N	0.307433	0.612432	0.719468
221	C	0.278288	0.637241	0.719355
222	N	0.303925	0.691251	0.719448
223	C	0.392905	0.613717	0.053361
224	H	0.365916	0.570884	0.057264
225	H	0.419348	0.627667	0.74895
226	C	0.219738	0.605777	0.719991
227	H	0.20389	0.632762	0.057198
228	H	0.207231	0.579345	0.748917
229	C	0.384965	0.778945	0.719984
230	H	0.427796	0.794792	0.057212
231	H	0.371024	0.791451	0.748904
232	C	0.631318	0.279155	0.650245
233	N	0.61293	0.313942	0.650212
234	C	0.646787	0.367368	0.650258
235	N	0.699958	0.385755	0.650218
236	C	0.719532	0.3519	0.650255
237	N	0.684743	0.298726	0.650208
238	C	0.627646	0.405871	0.98252
239	H	0.645603	0.431933	0.953743
240	H	0.641993	0.430059	0.679391
241	C	0.777171	0.37104	0.649183
242	H	0.785277	0.353093	0.95373
243	H	0.787012	0.356679	0.679377
244	C	0.592817	0.221513	0.649179
245	H	0.566755	0.213407	0.95373
246	H	0.568623	0.211673	0.679381
247	C	0.548976	0.41595	0.983868
248	C	0.519799	0.413428	0.688811
249	C	0.498373	0.44747	0.694485
250	C	0.507024	0.485151	0.660357
251	C	0.535707	0.487049	0.955005
252	C	0.556431	0.452808	0.950117
253	H	0.542285	0.513835	0.930148
254	H	0.576989	0.454801	0.921837
255	C	0.48825	0.521711	0.663674
256	C	0.509764	0.562785	0.695793
257	C	0.489539	0.597579	0.700398
258	C	0.4475	0.591938	0.672931
259	C	0.427185	0.552069	0.973273
260	C	0.447376	0.517232	0.968608
261	H	0.539644	0.567069	0.716551
262	H	0.50489	0.626457	0.72437
263	H	0.396597	0.547348	0.953247
264	H	0.513991	0.386042	0.712882
265	H	0.430987	0.487657	0.945212
266	N	0.469478	0.441893	0.731865
267	H	0.463596	0.41535	0.754368
268	H	0.452011	0.462578	0.736633
269	N	0.423785	0.623884	0.678149
270	H	0.452757	0.663244	0.675868
271	N	0.568746	0.380399	0.980289
272	H	0.554748	0.359106	0.951246
273	C	0.582729	0.132762	0.983855
274	C	0.58523	0.106094	0.688797
275	C	0.55118	0.050628	0.694468
276	C	0.513516	0.021606	0.660324
277	C	0.51164	0.048403	0.954972
278	C	0.545888	0.103368	0.950094
279	H	0.484862	0.0282	0.930108
280	H	0.543905	0.121939	0.921814
281	C	0.476945	0.966273	0.663631
282	C	0.435861	0.946711	0.695743
283	C	0.401045	0.891694	0.700325
284	C	0.406708	0.855298	0.672874
285	C	0.446561	0.874852	0.9732
286	C	0.481435	0.929877	0.968574
287	H	0.431574	0.972308	0.716498
288	H	0.372195	0.878162	0.72432
289	H	0.451335	0.848985	0.953217
290	H	0.612607	0.127667	0.712878
291	H	0.511012	0.943063	0.945179
292	N	0.556742	0.027298	0.731845
293	H	0.583278	0.047954	0.754355
294	H	0.536054	0.989145	0.736607
295	N	0.374781	0.799637	0.678102
296	H	0.335417	0.789235	0.675824
297	N	0.618283	0.188081	0.980289
298	H	0.639587	0.19538	0.951249
299	C	0.865922	0.449702	0.983865
300	C	0.892595	0.478867	0.688811
301	C	0.948061	0.500287	0.694468
302	C	0.977082	0.491651	0.660321
303	C	0.950284	0.462995	0.954962
304	C	0.895315	0.442271	0.950094
305	H	0.970485	0.456424	0.930095
306	H	0.876744	0.421726	0.921811
307	C	0.032411	0.510406	0.663624
308	C	0.051972	0.48889	0.695747
309	C	0.106989	0.509105	0.700345
310	C	0.143391	0.551146	0.672878
311	C	0.123837	0.571437	0.9732
312	C	0.068811	0.551274	0.968554
313	H	0.026377	0.459049	0.716535
314	H	0.120517	0.493803	0.724356
315	H	0.149708	0.602042	0.953187
316	H	0.87102	0.484654	0.712898
317	H	0.05563	0.567654	0.945146
318	N	0.971394	0.529157	0.731855
319	H	0.950751	0.53512	0.754321
320	H	0.009562	0.546723	0.736563
321	N	0.199049	0.574882	0.678115
322	H	0.209449	0.545916	0.675854
323	N	0.810603	0.42994	0.980302
324	H	0.803304	0.443954	0.951269
