data_C324H216N72_2018-02-15_10:40:20
#******************************************
#
# CIF file created by Zeo++
# Zeo++ is an open source package to
# analyze microporous materials
#
#*******************************************

_cell_length_a		29.708   
_cell_length_b		29.708   
_cell_length_c		29.9822   
_cell_angle_alpha		90   
_cell_angle_beta		90   
_cell_angle_gamma		120   

_symmetry_space_group_name_H-M		'P1'
_symmetry_Int_Tables_number		1
_symmetry_cell_setting		Monoclinic

loop_
_symmetry_equiv_pos_as_xyz
'+x,+y,+z'

loop_
_atom_site_label
_atom_site_type_symbol
_atom_site_fract_x
_atom_site_fract_y
_atom_site_fract_z
1	C	0.110662	0.306391	0.009824
2	C	0.141143	0.361361	0.009004
3	C	0.196331	0.390091	0.009849
4	C	0.220817	0.359609	0.009032
5	C	0.194358	0.304422	0.009874
6	C	0.139391	0.279933	0.009023
7	H	0.25995	0.378766	0.006718
8	H	0.119428	0.240804	0.006673
9	H	0.121982	0.381335	0.006695
10	C	0.389343	0.195258	0.003015
11	C	0.361504	0.140248	0.002909
12	C	0.306512	0.111415	0.003063
13	C	0.27934	0.139252	0.002924
14	C	0.305499	0.194244	0.003051
15	C	0.360509	0.221416	0.002871
16	H	0.239549	0.119022	0.003429
17	H	0.38007	0.261208	0.003335
18	H	0.381733	0.120684	0.003365
19	C	0.200587	0.223153	0.026032
20	C	0.221238	0.27538	0.009969
21	C	0.272819	0.297764	0.326275
22	N	0.298847	0.271258	0.324502
23	C	0.277605	0.221248	0.004592
24	N	0.229051	0.199016	0.021887
25	H	0.291599	0.333713	0.312124
26	C	0.154631	0.194165	0.055445
27	H	0.147294	0.220543	0.075368
28	H	0.160509	0.169511	0.079032
29	H	0.120496	0.169056	0.0354
30	C	0.277603	0.477591	0.026017
31	C	0.225378	0.446015	0.009947
32	C	0.203018	0.475216	0.326212
33	N	0.2295	0.027752	0.324491
34	C	0.279508	0.056515	0.004586
35	N	0.30174	0.030192	0.021877
36	H	0.167022	0.458044	0.312154
37	C	0.306579	0.460625	0.055449
38	H	0.280191	0.426919	0.075379
39	H	0.331233	0.491164	0.079032
40	H	0.331689	0.451588	0.035418
41	C	0.023201	0.300278	0.025783
42	C	0.054739	0.279517	0.009873
43	C	0.025537	0.227929	0.326197
44	N	0.473001	0.201887	0.324455
45	C	0.444245	0.223164	0.004477
46	N	0.470587	0.271748	0.021707
47	H	0.042697	0.209062	0.312199
48	C	0.040068	0.346047	0.05541
49	H	0.073755	0.353299	0.075336
50	H	0.009492	0.340032	0.079001
51	H	0.049128	0.380293	0.035513
52	C	0.110662	0.306391	0.343157
53	C	0.141143	0.361361	0.342336
54	C	0.196331	0.390091	0.343184
55	C	0.220817	0.359609	0.342367
56	C	0.194358	0.304422	0.343207
57	C	0.139391	0.279933	0.342356
58	H	0.25995	0.378766	0.340052
59	H	0.119428	0.240804	0.340005
60	H	0.121982	0.381335	0.340028
61	C	0.389343	0.195258	0.336346
62	C	0.361504	0.140248	0.336243
63	C	0.306512	0.111415	0.336396
64	C	0.27934	0.139252	0.336256
65	C	0.305499	0.194244	0.336383
66	C	0.360509	0.221416	0.336203
67	H	0.239549	0.119022	0.336763
68	H	0.38007	0.261208	0.33667
69	H	0.381733	0.120684	0.336696
70	C	0.200587	0.223153	0.359367
71	C	0.221238	0.27538	0.343304
72	C	0.272819	0.297764	0.659608
73	N	0.298847	0.271258	0.657834
74	C	0.277605	0.221248	0.337924
75	N	0.229051	0.199016	0.355221
76	H	0.291599	0.333713	0.645456
77	C	0.154631	0.194165	0.388777
78	H	0.147294	0.220543	0.408703
79	H	0.160509	0.169511	0.412365
80	H	0.120496	0.169056	0.368732
81	C	0.277603	0.477591	0.35935
82	C	0.225378	0.446015	0.34328
83	C	0.203018	0.475216	0.659545
84	N	0.2295	0.027752	0.657824
85	C	0.279508	0.056515	0.337921
86	N	0.30174	0.030192	0.355211
87	H	0.167022	0.458044	0.645486
88	C	0.306579	0.460625	0.388781
89	H	0.280191	0.426919	0.408713
90	H	0.331233	0.491164	0.412365
91	H	0.331689	0.451588	0.368752
92	C	0.023201	0.300278	0.359116
93	C	0.054739	0.279517	0.343207
94	C	0.025537	0.227929	0.659531
95	N	0.473001	0.201887	0.657787
96	C	0.444245	0.223164	0.33781
97	N	0.470587	0.271748	0.355041
98	H	0.042697	0.209062	0.645533
99	C	0.040068	0.346047	0.388744
100	H	0.073755	0.353299	0.408669
101	H	0.009492	0.340032	0.412335
102	H	0.049128	0.380293	0.368846
103	C	0.110662	0.306391	0.676491
104	C	0.141143	0.361361	0.675671
105	C	0.196331	0.390091	0.676515
106	C	0.220817	0.359609	0.675698
107	C	0.194358	0.304422	0.676541
108	C	0.139391	0.279933	0.675691
109	H	0.25995	0.378766	0.673383
110	H	0.119428	0.240804	0.67334
111	H	0.121982	0.381335	0.673363
112	C	0.389343	0.195258	0.669681
113	C	0.361504	0.140248	0.669577
114	C	0.306512	0.111415	0.669731
115	C	0.27934	0.139252	0.669591
116	C	0.305499	0.194244	0.669717
117	C	0.360509	0.221416	0.669537
118	H	0.239549	0.119022	0.670094
119	H	0.38007	0.261208	0.670001
120	H	0.381733	0.120684	0.670031
121	C	0.200587	0.223153	0.692698
122	C	0.221238	0.27538	0.676635
123	C	0.272819	0.297764	0.992943
124	N	0.298847	0.271258	0.991168
125	C	0.277605	0.221248	0.671258
126	N	0.229051	0.199016	0.688555
127	H	0.291599	0.333713	0.978791
128	C	0.154631	0.194165	0.722112
129	H	0.147294	0.220543	0.742034
130	H	0.160509	0.169511	0.745699
131	H	0.120496	0.169056	0.702067
132	C	0.277603	0.477591	0.692684
133	C	0.225378	0.446015	0.676615
134	C	0.203018	0.475216	0.992879
135	N	0.2295	0.027752	0.991158
136	C	0.279508	0.056515	0.671252
137	N	0.30174	0.030192	0.688542
138	H	0.167022	0.458044	0.978821
139	C	0.306579	0.460625	0.722115
140	H	0.280191	0.426919	0.742044
141	H	0.331233	0.491164	0.745699
142	H	0.331689	0.451588	0.702083
143	C	0.023201	0.300278	0.692451
144	C	0.054739	0.279517	0.676541
145	C	0.025537	0.227929	0.992863
146	N	0.473001	0.201887	0.991121
147	C	0.444245	0.223164	0.671145
148	N	0.470587	0.271748	0.688375
149	H	0.042697	0.209062	0.978864
150	C	0.040068	0.346047	0.722079
151	H	0.073755	0.353299	0.742004
152	H	0.009492	0.340032	0.745666
153	H	0.049128	0.380293	0.70218
154	C	0.110662	0.80639	0.009824
155	C	0.141144	0.861362	0.009004
156	C	0.196331	0.89009	0.009849
157	C	0.220817	0.859609	0.009032
158	C	0.194357	0.80442	0.009874
159	C	0.139392	0.779933	0.009023
160	H	0.25995	0.878767	0.006718
161	H	0.119429	0.740804	0.006673
162	H	0.121983	0.881336	0.006695
163	C	0.389343	0.695258	0.003015
164	C	0.361504	0.640248	0.002909
165	C	0.306513	0.611415	0.003063
166	C	0.27934	0.639253	0.002924
167	C	0.305499	0.694243	0.003051
168	C	0.360509	0.721416	0.002871
169	H	0.239548	0.619022	0.003429
170	H	0.380071	0.76121	0.003335
171	H	0.381734	0.620685	0.003365
172	C	0.200588	0.723154	0.026032
173	C	0.221239	0.775381	0.009969
174	C	0.27282	0.797766	0.326275
175	N	0.298847	0.771257	0.324502
176	C	0.277605	0.721249	0.004592
177	N	0.229052	0.699017	0.021887
178	H	0.291598	0.833711	0.312124
179	C	0.154632	0.694166	0.055445
180	H	0.147294	0.720542	0.075368
181	H	0.160509	0.669512	0.079032
182	H	0.120497	0.669057	0.0354
183	C	0.277603	0.97759	0.026017
184	C	0.225378	0.946013	0.009947
185	C	0.203018	0.975215	0.326212
186	N	0.2295	0.527751	0.324491
187	C	0.279507	0.556513	0.004586
188	N	0.30174	0.530192	0.021877
189	H	0.167022	0.958043	0.312154
190	C	0.306581	0.960628	0.055449
191	H	0.280193	0.926921	0.075379
192	H	0.331233	0.991163	0.079032
193	H	0.331688	0.951587	0.035418
194	C	0.023199	0.800276	0.025783
195	C	0.05474	0.779517	0.009873
196	C	0.025536	0.727927	0.326197
197	N	0.473002	0.701885	0.324455
198	C	0.444244	0.723162	0.004477
199	N	0.470587	0.771747	0.021707
200	H	0.042697	0.70906	0.312199
201	C	0.04007	0.846048	0.05541
202	H	0.073755	0.853301	0.075336
203	H	0.00949	0.840031	0.079001
204	H	0.049126	0.880291	0.035513
205	C	0.110662	0.80639	0.343157
206	C	0.141144	0.861362	0.342336
207	C	0.196331	0.89009	0.343184
208	C	0.220817	0.859609	0.342367
209	C	0.194357	0.80442	0.343207
210	C	0.139392	0.779933	0.342356
211	H	0.25995	0.878767	0.340052
212	H	0.119429	0.740804	0.340005
213	H	0.121983	0.881336	0.340028
214	C	0.389343	0.695258	0.336346
215	C	0.361504	0.640248	0.336243
216	C	0.306513	0.611415	0.336396
217	C	0.27934	0.639253	0.336256
218	C	0.305499	0.694243	0.336383
219	C	0.360509	0.721416	0.336203
220	H	0.239548	0.619022	0.336763
221	H	0.380071	0.76121	0.33667
222	H	0.381734	0.620685	0.336696
223	C	0.200588	0.723154	0.359367
224	C	0.221239	0.775381	0.343304
225	C	0.27282	0.797766	0.659608
226	N	0.298847	0.771257	0.657834
227	C	0.277605	0.721249	0.337924
228	N	0.229052	0.699017	0.355221
229	H	0.291598	0.833711	0.645456
230	C	0.154632	0.694166	0.388777
231	H	0.147294	0.720542	0.408703
232	H	0.160509	0.669512	0.412365
233	H	0.120497	0.669057	0.368732
234	C	0.277603	0.97759	0.35935
235	C	0.225378	0.946013	0.34328
236	C	0.203018	0.975215	0.659545
237	N	0.2295	0.527751	0.657824
238	C	0.279507	0.556513	0.337921
239	N	0.30174	0.530192	0.355211
240	H	0.167022	0.958043	0.645486
241	C	0.306581	0.960628	0.388781
242	H	0.280193	0.926921	0.408713
243	H	0.331233	0.991163	0.412365
244	H	0.331688	0.951587	0.368752
245	C	0.023199	0.800276	0.359116
246	C	0.05474	0.779517	0.343207
247	C	0.025536	0.727927	0.659531
248	N	0.473002	0.701885	0.657787
249	C	0.444244	0.723162	0.33781
250	N	0.470587	0.771747	0.355041
251	H	0.042697	0.70906	0.645533
252	C	0.04007	0.846048	0.388744
253	H	0.073755	0.853301	0.408669
254	H	0.00949	0.840031	0.412335
255	H	0.049126	0.880291	0.368846
256	C	0.110662	0.80639	0.676491
257	C	0.141144	0.861362	0.675671
258	C	0.196331	0.89009	0.676515
259	C	0.220817	0.859609	0.675698
260	C	0.194357	0.80442	0.676541
261	C	0.139392	0.779933	0.675691
262	H	0.25995	0.878767	0.673383
263	H	0.119429	0.740804	0.67334
264	H	0.121983	0.881336	0.673363
265	C	0.389343	0.695258	0.669681
266	C	0.361504	0.640248	0.669577
267	C	0.306513	0.611415	0.669731
268	C	0.27934	0.639253	0.669591
269	C	0.305499	0.694243	0.669717
270	C	0.360509	0.721416	0.669537
271	H	0.239548	0.619022	0.670094
272	H	0.380071	0.76121	0.670001
273	H	0.381734	0.620685	0.670031
274	C	0.200588	0.723154	0.692698
275	C	0.221239	0.775381	0.676635
276	C	0.27282	0.797766	0.992943
277	N	0.298847	0.771257	0.991168
278	C	0.277605	0.721249	0.671258
279	N	0.229052	0.699017	0.688555
280	H	0.291598	0.833711	0.978791
281	C	0.154632	0.694166	0.722112
282	H	0.147294	0.720542	0.742034
283	H	0.160509	0.669512	0.745699
284	H	0.120497	0.669057	0.702067
285	C	0.277603	0.97759	0.692684
286	C	0.225378	0.946013	0.676615
287	C	0.203018	0.975215	0.992879
288	N	0.2295	0.527751	0.991158
289	C	0.279507	0.556513	0.671252
290	N	0.30174	0.530192	0.688542
291	H	0.167022	0.958043	0.978821
292	C	0.306581	0.960628	0.722115
293	H	0.280193	0.926921	0.742044
294	H	0.331233	0.991163	0.745699
295	H	0.331688	0.951587	0.702083
296	C	0.023199	0.800276	0.692451
297	C	0.05474	0.779517	0.676541
298	C	0.025536	0.727927	0.992863
299	N	0.473002	0.701885	0.991121
300	C	0.444244	0.723162	0.671145
301	N	0.470587	0.771747	0.688375
302	H	0.042697	0.70906	0.978864
303	C	0.04007	0.846048	0.722079
304	H	0.073755	0.853301	0.742004
305	H	0.00949	0.840031	0.745666
306	H	0.049126	0.880291	0.70218
307	C	0.610662	0.306391	0.009824
308	C	0.641142	0.361361	0.009004
309	C	0.696331	0.390091	0.009849
310	C	0.720817	0.359609	0.009032
311	C	0.694358	0.304422	0.009874
312	C	0.639391	0.279933	0.009023
313	H	0.75995	0.378766	0.006718
314	H	0.619429	0.240804	0.006673
315	H	0.621982	0.381335	0.006695
316	C	0.889342	0.195258	0.003015
317	C	0.861503	0.140248	0.002909
318	C	0.806512	0.111415	0.003063
319	C	0.779341	0.139252	0.002924
320	C	0.805497	0.194244	0.003051
321	C	0.860509	0.221416	0.002871
322	H	0.739547	0.119022	0.003429
323	H	0.880069	0.261208	0.003335
324	H	0.881734	0.120684	0.003365
325	C	0.700586	0.223153	0.026032
326	C	0.721237	0.27538	0.009969
327	C	0.772818	0.297764	0.326275
328	N	0.798848	0.271258	0.324502
329	C	0.777603	0.221248	0.004592
330	N	0.729052	0.199016	0.021887
331	H	0.791597	0.333713	0.312124
332	C	0.654629	0.194165	0.055445
333	H	0.647292	0.220543	0.075368
334	H	0.66051	0.169511	0.079032
335	H	0.620495	0.169056	0.0354
336	C	0.777603	0.477591	0.026017
337	C	0.725377	0.446015	0.009947
338	C	0.703018	0.475216	0.326212
339	N	0.729498	0.027752	0.324491
340	C	0.779507	0.056515	0.004586
341	N	0.801739	0.030192	0.021877
342	H	0.667022	0.458044	0.312154
343	C	0.806578	0.460625	0.055449
344	H	0.780192	0.426919	0.075379
345	H	0.831232	0.491164	0.079032
346	H	0.831688	0.451588	0.035418
347	C	0.5232	0.300278	0.025783
348	C	0.554738	0.279517	0.009873
349	C	0.525537	0.227929	0.326197
350	N	0.973001	0.201887	0.324455
351	C	0.944243	0.223164	0.004477
352	N	0.970585	0.271748	0.021707
353	H	0.542696	0.209062	0.312199
354	C	0.540066	0.346047	0.05541
355	H	0.573755	0.353299	0.075336
356	H	0.50949	0.340032	0.079001
357	H	0.549127	0.380293	0.035513
358	C	0.610662	0.306391	0.343157
359	C	0.641142	0.361361	0.342336
360	C	0.696331	0.390091	0.343184
361	C	0.720817	0.359609	0.342367
362	C	0.694358	0.304422	0.343207
363	C	0.639391	0.279933	0.342356
364	H	0.75995	0.378766	0.340052
365	H	0.619429	0.240804	0.340005
366	H	0.621982	0.381335	0.340028
367	C	0.889342	0.195258	0.336346
368	C	0.861503	0.140248	0.336243
369	C	0.806512	0.111415	0.336396
370	C	0.779341	0.139252	0.336256
371	C	0.805497	0.194244	0.336383
372	C	0.860509	0.221416	0.336203
373	H	0.739547	0.119022	0.336763
374	H	0.880069	0.261208	0.33667
375	H	0.881734	0.120684	0.336696
376	C	0.700586	0.223153	0.359367
377	C	0.721237	0.27538	0.343304
378	C	0.772818	0.297764	0.659608
379	N	0.798848	0.271258	0.657834
380	C	0.777603	0.221248	0.337924
381	N	0.729052	0.199016	0.355221
382	H	0.791597	0.333713	0.645456
383	C	0.654629	0.194165	0.388777
384	H	0.647292	0.220543	0.408703
385	H	0.66051	0.169511	0.412365
386	H	0.620495	0.169056	0.368732
387	C	0.777603	0.477591	0.35935
388	C	0.725377	0.446015	0.34328
389	C	0.703018	0.475216	0.659545
390	N	0.729498	0.027752	0.657824
391	C	0.779507	0.056515	0.337921
392	N	0.801739	0.030192	0.355211
393	H	0.667022	0.458044	0.645486
394	C	0.806578	0.460625	0.388781
395	H	0.780192	0.426919	0.408713
396	H	0.831232	0.491164	0.412365
397	H	0.831688	0.451588	0.368752
398	C	0.5232	0.300278	0.359116
399	C	0.554738	0.279517	0.343207
400	C	0.525537	0.227929	0.659531
401	N	0.973001	0.201887	0.657787
402	C	0.944243	0.223164	0.33781
403	N	0.970585	0.271748	0.355041
404	H	0.542696	0.209062	0.645533
405	C	0.540066	0.346047	0.388744
406	H	0.573755	0.353299	0.408669
407	H	0.50949	0.340032	0.412335
408	H	0.549127	0.380293	0.368846
409	C	0.610662	0.306391	0.676491
410	C	0.641142	0.361361	0.675671
411	C	0.696331	0.390091	0.676515
412	C	0.720817	0.359609	0.675698
413	C	0.694358	0.304422	0.676541
414	C	0.639391	0.279933	0.675691
415	H	0.75995	0.378766	0.673383
416	H	0.619429	0.240804	0.67334
417	H	0.621982	0.381335	0.673363
418	C	0.889342	0.195258	0.669681
419	C	0.861503	0.140248	0.669577
420	C	0.806512	0.111415	0.669731
421	C	0.779341	0.139252	0.669591
422	C	0.805497	0.194244	0.669717
423	C	0.860509	0.221416	0.669537
424	H	0.739547	0.119022	0.670094
425	H	0.880069	0.261208	0.670001
426	H	0.881734	0.120684	0.670031
427	C	0.700586	0.223153	0.692698
428	C	0.721237	0.27538	0.676635
429	C	0.772818	0.297764	0.992943
430	N	0.798848	0.271258	0.991168
431	C	0.777603	0.221248	0.671258
432	N	0.729052	0.199016	0.688555
433	H	0.791597	0.333713	0.978791
434	C	0.654629	0.194165	0.722112
435	H	0.647292	0.220543	0.742034
436	H	0.66051	0.169511	0.745699
437	H	0.620495	0.169056	0.702067
438	C	0.777603	0.477591	0.692684
439	C	0.725377	0.446015	0.676615
440	C	0.703018	0.475216	0.992879
441	N	0.729498	0.027752	0.991158
442	C	0.779507	0.056515	0.671252
443	N	0.801739	0.030192	0.688542
444	H	0.667022	0.458044	0.978821
445	C	0.806578	0.460625	0.722115
446	H	0.780192	0.426919	0.742044
447	H	0.831232	0.491164	0.745699
448	H	0.831688	0.451588	0.702083
449	C	0.5232	0.300278	0.692451
450	C	0.554738	0.279517	0.676541
451	C	0.525537	0.227929	0.992863
452	N	0.973001	0.201887	0.991121
453	C	0.944243	0.223164	0.671145
454	N	0.970585	0.271748	0.688375
455	H	0.542696	0.209062	0.978864
456	C	0.540066	0.346047	0.722079
457	H	0.573755	0.353299	0.742004
458	H	0.50949	0.340032	0.745666
459	H	0.549127	0.380293	0.70218
460	C	0.610662	0.80639	0.009824
461	C	0.641143	0.861362	0.009004
462	C	0.696331	0.89009	0.009849
463	C	0.720817	0.859609	0.009032
464	C	0.694356	0.80442	0.009874
465	C	0.639391	0.779933	0.009023
466	H	0.75995	0.878767	0.006718
467	H	0.619428	0.740804	0.006673
468	H	0.621982	0.881336	0.006695
469	C	0.889342	0.695258	0.003015
470	C	0.861503	0.640248	0.002909
471	C	0.806512	0.611415	0.003063
472	C	0.779341	0.639253	0.002924
473	C	0.805497	0.694243	0.003051
474	C	0.86051	0.721416	0.002871
475	H	0.739546	0.619022	0.003429
476	H	0.88007	0.76121	0.003335
477	H	0.881734	0.620685	0.003365
478	C	0.700587	0.723154	0.026032
479	C	0.721238	0.775381	0.009969
480	C	0.772819	0.797766	0.326275
481	N	0.798847	0.771257	0.324502
482	C	0.777603	0.721249	0.004592
483	N	0.729052	0.699017	0.021887
484	H	0.791596	0.833711	0.312124
485	C	0.654631	0.694166	0.055445
486	H	0.647293	0.720542	0.075368
487	H	0.660508	0.669512	0.079032
488	H	0.620496	0.669057	0.0354
489	C	0.777602	0.97759	0.026017
490	C	0.725377	0.946013	0.009947
491	C	0.703017	0.975215	0.326212
492	N	0.729497	0.527751	0.324491
493	C	0.779506	0.556513	0.004586
494	N	0.801739	0.530192	0.021877
495	H	0.667021	0.958043	0.312154
496	C	0.80658	0.960628	0.055449
497	H	0.780192	0.926921	0.075379
498	H	0.831232	0.991163	0.079032
499	H	0.831688	0.951587	0.035418
500	C	0.5232	0.800276	0.025783
501	C	0.554739	0.779517	0.009873
502	C	0.525536	0.727927	0.326197
503	N	0.973001	0.701885	0.324455
504	C	0.944242	0.723162	0.004477
505	N	0.970585	0.771747	0.021707
506	H	0.542696	0.70906	0.312199
507	C	0.540067	0.846048	0.05541
508	H	0.573755	0.853301	0.075336
509	H	0.509491	0.840031	0.079001
510	H	0.549127	0.880291	0.035513
511	C	0.610662	0.80639	0.343157
512	C	0.641143	0.861362	0.342336
513	C	0.696331	0.89009	0.343184
514	C	0.720817	0.859609	0.342367
515	C	0.694356	0.80442	0.343207
516	C	0.639391	0.779933	0.342356
517	H	0.75995	0.878767	0.340052
518	H	0.619428	0.740804	0.340005
519	H	0.621982	0.881336	0.340028
520	C	0.889342	0.695258	0.336346
521	C	0.861503	0.640248	0.336243
522	C	0.806512	0.611415	0.336396
523	C	0.779341	0.639253	0.336256
524	C	0.805497	0.694243	0.336383
525	C	0.86051	0.721416	0.336203
526	H	0.739546	0.619022	0.336763
527	H	0.88007	0.76121	0.33667
528	H	0.881734	0.620685	0.336696
529	C	0.700587	0.723154	0.359367
530	C	0.721238	0.775381	0.343304
531	C	0.772819	0.797766	0.659608
532	N	0.798847	0.771257	0.657834
533	C	0.777603	0.721249	0.337924
534	N	0.729052	0.699017	0.355221
535	H	0.791596	0.833711	0.645456
536	C	0.654631	0.694166	0.388777
537	H	0.647293	0.720542	0.408703
538	H	0.660508	0.669512	0.412365
539	H	0.620496	0.669057	0.368732
540	C	0.777602	0.97759	0.35935
541	C	0.725377	0.946013	0.34328
542	C	0.703017	0.975215	0.659545
543	N	0.729497	0.527751	0.657824
544	C	0.779506	0.556513	0.337921
545	N	0.801739	0.530192	0.355211
546	H	0.667021	0.958043	0.645486
547	C	0.80658	0.960628	0.388781
548	H	0.780192	0.926921	0.408713
549	H	0.831232	0.991163	0.412365
550	H	0.831688	0.951587	0.368752
551	C	0.5232	0.800276	0.359116
552	C	0.554739	0.779517	0.343207
553	C	0.525536	0.727927	0.659531
554	N	0.973001	0.701885	0.657787
555	C	0.944242	0.723162	0.33781
556	N	0.970585	0.771747	0.355041
557	H	0.542696	0.70906	0.645533
558	C	0.540067	0.846048	0.388744
559	H	0.573755	0.853301	0.408669
560	H	0.509491	0.840031	0.412335
561	H	0.549127	0.880291	0.368846
562	C	0.610662	0.80639	0.676491
563	C	0.641143	0.861362	0.675671
564	C	0.696331	0.89009	0.676515
565	C	0.720817	0.859609	0.675698
566	C	0.694356	0.80442	0.676541
567	C	0.639391	0.779933	0.675691
568	H	0.75995	0.878767	0.673383
569	H	0.619428	0.740804	0.67334
570	H	0.621982	0.881336	0.673363
571	C	0.889342	0.695258	0.669681
572	C	0.861503	0.640248	0.669577
573	C	0.806512	0.611415	0.669731
574	C	0.779341	0.639253	0.669591
575	C	0.805497	0.694243	0.669717
576	C	0.86051	0.721416	0.669537
577	H	0.739546	0.619022	0.670094
578	H	0.88007	0.76121	0.670001
579	H	0.881734	0.620685	0.670031
580	C	0.700587	0.723154	0.692698
581	C	0.721238	0.775381	0.676635
582	C	0.772819	0.797766	0.992943
583	N	0.798847	0.771257	0.991168
584	C	0.777603	0.721249	0.671258
585	N	0.729052	0.699017	0.688555
586	H	0.791596	0.833711	0.978791
587	C	0.654631	0.694166	0.722112
588	H	0.647293	0.720542	0.742034
589	H	0.660508	0.669512	0.745699
590	H	0.620496	0.669057	0.702067
591	C	0.777602	0.97759	0.692684
592	C	0.725377	0.946013	0.676615
593	C	0.703017	0.975215	0.992879
594	N	0.729497	0.527751	0.991158
595	C	0.779506	0.556513	0.671252
596	N	0.801739	0.530192	0.688542
597	H	0.667021	0.958043	0.978821
598	C	0.80658	0.960628	0.722115
599	H	0.780192	0.926921	0.742044
600	H	0.831232	0.991163	0.745699
601	H	0.831688	0.951587	0.702083
602	C	0.5232	0.800276	0.692451
603	C	0.554739	0.779517	0.676541
604	C	0.525536	0.727927	0.992863
605	N	0.973001	0.701885	0.991121
606	C	0.944242	0.723162	0.671145
607	N	0.970585	0.771747	0.688375
608	H	0.542696	0.70906	0.978864
609	C	0.540067	0.846048	0.722079
610	H	0.573755	0.853301	0.742004
611	H	0.509491	0.840031	0.745666
612	H	0.549127	0.880291	0.70218
