data_C360H72N288O72_2018-02-15_10:32:35
#******************************************
#
# CIF file created by Zeo++
# Zeo++ is an open source package to
# analyze microporous materials
#
#*******************************************

_cell_length_a		42.552   
_cell_length_b		42.552   
_cell_length_c		30.0976   
_cell_angle_alpha		90   
_cell_angle_beta		90   
_cell_angle_gamma		120   

_symmetry_space_group_name_H-M		'P1'
_symmetry_Int_Tables_number		1
_symmetry_cell_setting		Monoclinic

loop_
_symmetry_equiv_pos_as_xyz
'+x,+y,+z'

loop_
_atom_site_label
_atom_site_type_symbol
_atom_site_fract_x
_atom_site_fract_y
_atom_site_fract_z
1	C	0.127785	0.32012	0.281283
2	N	0.152877	0.356019	0.948265
3	C	0.189075	0.368146	0.947856
4	N	0.199891	0.343061	0.948228
5	C	0.175825	0.306859	0.947906
6	N	0.139927	0.296059	0.948328
7	C	0.214742	0.405084	0.953876
8	C	0.187087	0.281196	0.954009
9	C	0.090862	0.308842	0.954099
10	O	0.160462	0.246025	0.957804
11	O	0.082284	0.335449	0.957807
12	O	0.249915	0.413629	0.957664
13	C	0.367328	0.176629	0.383878
14	N	0.342232	0.140729	0.050115
15	C	0.30603	0.128604	0.05044
16	N	0.295228	0.153698	0.050103
17	C	0.319305	0.189894	0.050519
18	N	0.355205	0.200704	0.05019
19	C	0.280381	0.091674	0.044326
20	C	0.308044	0.215563	0.044456
21	C	0.404258	0.187883	0.044513
22	O	0.334666	0.250742	0.040715
23	O	0.41279	0.161248	0.040683
24	O	0.245205	0.083119	0.040559
25	C	0.259541	0.226527	0.020307
26	N	0.28281	0.260354	0.337834
27	C	0.273079	0.28264	0.317604
28	C	0.235611	0.270256	0.31145
29	N	0.212344	0.236435	0.993943
30	C	0.222073	0.214151	0.014176
31	C	0.195811	0.182825	0.027258
32	C	0.299337	0.313968	0.304531
33	N	0.322553	0.341579	0.292876
34	N	0.172593	0.15522	0.03892
35	N	0.22265	0.291103	0.293645
36	H	0.240547	0.316229	0.287024
37	N	0.27249	0.205674	0.038123
38	H	0.25459	0.180547	0.044739
39	C	0.269447	0.032225	0.020165
40	N	0.235604	0.02165	0.337738
41	C	0.213311	0.489629	0.317525
42	C	0.225694	0.464544	0.311373
43	N	0.259539	0.475119	0.99379
44	C	0.281834	0.007143	0.014001
45	C	0.313184	0.012234	0.027016
46	C	0.181961	0.484538	0.304511
47	N	0.154333	0.480129	0.292908
48	N	0.340812	0.016645	0.038619
49	N	0.204842	0.430738	0.293558
50	H	0.179712	0.423504	0.286958
51	N	0.290297	0.066029	0.037984
52	H	0.315427	0.073263	0.044581
53	C	0.463742	0.236396	0.020435
54	N	0.4743	0.213129	0.337954
55	C	0.006321	0.222859	0.317735
56	C	0.031409	0.260327	0.311595
57	N	0.020848	0.283595	0.994062
58	C	0.488833	0.273864	0.014293
59	C	0.483757	0.300124	0.027348
60	C	0.011386	0.196601	0.304644
61	N	0.015774	0.173384	0.292973
62	N	0.479357	0.323341	0.038986
63	N	0.06521	0.273283	0.293771
64	H	0.072445	0.255389	0.287156
65	N	0.429929	0.223442	0.03822
66	H	0.422704	0.241342	0.044831
67	C	0.127785	0.32012	0.614617
68	N	0.152877	0.356019	0.281597
69	C	0.189075	0.368146	0.281188
70	N	0.199891	0.343061	0.281562
71	C	0.175825	0.306859	0.281238
72	N	0.139927	0.296059	0.28166
73	C	0.214742	0.405084	0.287209
74	C	0.187087	0.281196	0.287342
75	C	0.090862	0.308842	0.287431
76	O	0.160462	0.246025	0.291136
77	O	0.082284	0.335449	0.291139
78	O	0.249915	0.413629	0.290999
79	C	0.367328	0.176629	0.717213
80	N	0.342232	0.140729	0.383449
81	C	0.30603	0.128604	0.383775
82	N	0.295228	0.153698	0.383436
83	C	0.319305	0.189894	0.383851
84	N	0.355205	0.200704	0.383522
85	C	0.280381	0.091674	0.377661
86	C	0.308044	0.215563	0.377791
87	C	0.404258	0.187883	0.377847
88	O	0.334666	0.250742	0.37405
89	O	0.41279	0.161248	0.374016
90	O	0.245205	0.083119	0.373894
91	C	0.259541	0.226527	0.353639
92	N	0.28281	0.260354	0.67117
93	C	0.273079	0.28264	0.650939
94	C	0.235611	0.270256	0.644782
95	N	0.212344	0.236435	0.327275
96	C	0.222073	0.214151	0.347509
97	C	0.195811	0.182825	0.36059
98	C	0.299337	0.313968	0.637865
99	N	0.322553	0.341579	0.626209
100	N	0.172593	0.15522	0.372252
101	N	0.22265	0.291103	0.62698
102	H	0.240547	0.316229	0.620358
103	N	0.27249	0.205674	0.371455
104	H	0.25459	0.180547	0.378073
105	C	0.269447	0.032225	0.3535
106	N	0.235604	0.02165	0.671073
107	C	0.213311	0.489629	0.650859
108	C	0.225694	0.464544	0.644706
109	N	0.259539	0.475119	0.327124
110	C	0.281834	0.007143	0.347333
111	C	0.313184	0.012234	0.360348
112	C	0.181961	0.484538	0.637845
113	N	0.154333	0.480129	0.626242
114	N	0.340812	0.016645	0.371953
115	N	0.204842	0.430738	0.62689
116	H	0.179712	0.423504	0.620292
117	N	0.290297	0.066029	0.371319
118	H	0.315427	0.073263	0.377914
119	C	0.463742	0.236396	0.353769
120	N	0.4743	0.213129	0.671286
121	C	0.006321	0.222859	0.651068
122	C	0.031409	0.260327	0.644928
123	N	0.020848	0.283595	0.327397
124	C	0.488833	0.273864	0.347626
125	C	0.483757	0.300124	0.36068
126	C	0.011386	0.196601	0.637978
127	N	0.015774	0.173384	0.626306
128	N	0.479357	0.323341	0.372319
129	N	0.06521	0.273283	0.627103
130	H	0.072445	0.255389	0.620491
131	N	0.429929	0.223442	0.371554
132	H	0.422704	0.241342	0.378163
133	C	0.127785	0.32012	0.947949
134	N	0.152877	0.356019	0.614929
135	C	0.189075	0.368146	0.614521
136	N	0.199891	0.343061	0.614896
137	C	0.175825	0.306859	0.61457
138	N	0.139927	0.296059	0.614992
139	C	0.214742	0.405084	0.620541
140	C	0.187087	0.281196	0.620674
141	C	0.090862	0.308842	0.620764
142	O	0.160462	0.246025	0.624472
143	O	0.082284	0.335449	0.624472
144	O	0.249915	0.413629	0.624332
145	C	0.367328	0.176629	0.050546
146	N	0.342232	0.140729	0.716781
147	C	0.30603	0.128604	0.717107
148	N	0.295228	0.153698	0.716771
149	C	0.319305	0.189894	0.717187
150	N	0.355205	0.200704	0.716858
151	C	0.280381	0.091674	0.710993
152	C	0.308044	0.215563	0.711123
153	C	0.404258	0.187883	0.711179
154	O	0.334666	0.250742	0.707382
155	O	0.41279	0.161248	0.707349
156	O	0.245205	0.083119	0.707226
157	C	0.259541	0.226527	0.686975
158	N	0.28281	0.260354	0.004502
159	C	0.273079	0.28264	0.984271
160	C	0.235611	0.270256	0.978118
161	N	0.212344	0.236435	0.660607
162	C	0.222073	0.214151	0.680845
163	C	0.195811	0.182825	0.693926
164	C	0.299337	0.313968	0.971197
165	N	0.322553	0.341579	0.959541
166	N	0.172593	0.15522	0.705588
167	N	0.22265	0.291103	0.960312
168	H	0.240547	0.316229	0.95369
169	N	0.27249	0.205674	0.70479
170	H	0.25459	0.180547	0.711405
171	C	0.269447	0.032225	0.686832
172	N	0.235604	0.02165	0.004405
173	C	0.213311	0.489629	0.984191
174	C	0.225694	0.464544	0.978041
175	N	0.259539	0.475119	0.660458
176	C	0.281834	0.007143	0.680669
177	C	0.313184	0.012234	0.693683
178	C	0.181961	0.484538	0.971177
179	N	0.154333	0.480129	0.959575
180	N	0.340812	0.016645	0.705285
181	N	0.204842	0.430738	0.960226
182	H	0.179712	0.423504	0.953624
183	N	0.290297	0.066029	0.704651
184	H	0.315427	0.073263	0.711249
185	C	0.463742	0.236396	0.687101
186	N	0.4743	0.213129	0.004621
187	C	0.006321	0.222859	0.9844
188	C	0.031409	0.260327	0.978264
189	N	0.020848	0.283595	0.66073
190	C	0.488833	0.273864	0.680961
191	C	0.483757	0.300124	0.694015
192	C	0.011386	0.196601	0.97131
193	N	0.015774	0.173384	0.959641
194	N	0.479357	0.323341	0.705654
195	N	0.06521	0.273283	0.960438
196	H	0.072445	0.255389	0.953823
197	N	0.429929	0.223442	0.704887
198	H	0.422704	0.241342	0.711498
199	C	0.127785	0.820121	0.281283
200	N	0.152878	0.856019	0.948265
201	C	0.189076	0.868146	0.947856
202	N	0.199891	0.843062	0.948228
203	C	0.175826	0.806859	0.947906
204	N	0.139927	0.796059	0.948328
205	C	0.214744	0.905084	0.953876
206	C	0.187086	0.781194	0.954009
207	C	0.09086	0.80884	0.954099
208	O	0.160462	0.746025	0.957804
209	O	0.082284	0.83545	0.957807
210	O	0.249915	0.913629	0.957664
211	C	0.367327	0.676627	0.383878
212	N	0.342231	0.640729	0.050115
213	C	0.30603	0.628604	0.05044
214	N	0.295227	0.653697	0.050103
215	C	0.319305	0.689894	0.050519
216	N	0.355205	0.700705	0.05019
217	C	0.28038	0.591672	0.044326
218	C	0.308044	0.715562	0.044456
219	C	0.404259	0.687883	0.044513
220	O	0.334666	0.750742	0.040715
221	O	0.412789	0.661246	0.040683
222	O	0.245205	0.583119	0.040559
223	C	0.259541	0.726528	0.020307
224	N	0.28281	0.760353	0.337834
225	C	0.273078	0.782638	0.317604
226	C	0.235611	0.770255	0.31145
227	N	0.212344	0.736435	0.993943
228	C	0.222073	0.714151	0.014176
229	C	0.195811	0.682825	0.027258
230	C	0.299337	0.813969	0.304531
231	N	0.322553	0.84158	0.292876
232	N	0.172593	0.65522	0.03892
233	N	0.22265	0.791104	0.293645
234	H	0.240547	0.816229	0.287024
235	N	0.27249	0.705674	0.038122
236	H	0.254589	0.680546	0.044739
237	C	0.269447	0.532225	0.020165
238	N	0.235604	0.52165	0.337738
239	C	0.213311	0.989627	0.317525
240	C	0.225693	0.964542	0.311373
241	N	0.25954	0.97512	0.99379
242	C	0.281833	0.507143	0.014001
243	C	0.313184	0.512234	0.027016
244	C	0.181961	0.984536	0.304511
245	N	0.154333	0.980127	0.292908
246	N	0.340811	0.516643	0.038619
247	N	0.204841	0.930739	0.293558
248	H	0.17971	0.923501	0.286958
249	N	0.290296	0.566028	0.037984
250	H	0.315427	0.573263	0.044581
251	C	0.463743	0.736395	0.020435
252	N	0.474301	0.713128	0.337954
253	C	0.006321	0.722859	0.317735
254	C	0.031409	0.760326	0.311595
255	N	0.020849	0.783595	0.994062
256	C	0.488833	0.773864	0.014293
257	C	0.483756	0.800124	0.027348
258	C	0.011385	0.6966	0.304644
259	N	0.015774	0.673385	0.292973
260	N	0.479357	0.823339	0.038986
261	N	0.065212	0.773284	0.293771
262	H	0.072444	0.755387	0.287156
263	N	0.429927	0.72344	0.03822
264	H	0.422702	0.741342	0.044831
265	C	0.127785	0.820121	0.614617
266	N	0.152878	0.856019	0.281597
267	C	0.189076	0.868146	0.281188
268	N	0.199891	0.843062	0.281562
269	C	0.175826	0.806859	0.281238
270	N	0.139927	0.796059	0.28166
271	C	0.214744	0.905084	0.287209
272	C	0.187086	0.781194	0.287342
273	C	0.09086	0.80884	0.287431
274	O	0.160462	0.746025	0.291136
275	O	0.082284	0.83545	0.291139
276	O	0.249915	0.913629	0.290999
277	C	0.367327	0.676627	0.717213
278	N	0.342231	0.640729	0.383449
279	C	0.30603	0.628604	0.383775
280	N	0.295227	0.653697	0.383436
281	C	0.319305	0.689894	0.383851
282	N	0.355205	0.700705	0.383522
283	C	0.28038	0.591672	0.377661
284	C	0.308044	0.715562	0.377791
285	C	0.404259	0.687883	0.377847
286	O	0.334666	0.750742	0.37405
287	O	0.412789	0.661246	0.374016
288	O	0.245205	0.583119	0.373894
289	C	0.259541	0.726528	0.353639
290	N	0.28281	0.760353	0.67117
291	C	0.273078	0.782638	0.650939
292	C	0.235611	0.770255	0.644782
293	N	0.212344	0.736435	0.327275
294	C	0.222073	0.714151	0.347509
295	C	0.195811	0.682825	0.36059
296	C	0.299337	0.813969	0.637865
297	N	0.322553	0.84158	0.626209
298	N	0.172593	0.65522	0.372252
299	N	0.22265	0.791104	0.62698
300	H	0.240547	0.816229	0.620358
301	N	0.27249	0.705674	0.371455
302	H	0.254589	0.680546	0.378073
303	C	0.269447	0.532225	0.3535
304	N	0.235604	0.52165	0.671073
305	C	0.213311	0.989627	0.650859
306	C	0.225693	0.964542	0.644706
307	N	0.25954	0.97512	0.327124
308	C	0.281833	0.507143	0.347333
309	C	0.313184	0.512234	0.360348
310	C	0.181961	0.984536	0.637845
311	N	0.154333	0.980127	0.626242
312	N	0.340811	0.516643	0.371953
313	N	0.204841	0.930739	0.62689
314	H	0.17971	0.923501	0.620292
315	N	0.290296	0.566028	0.371319
316	H	0.315427	0.573263	0.377914
317	C	0.463743	0.736395	0.353769
318	N	0.474301	0.713128	0.671286
319	C	0.006321	0.722859	0.651068
320	C	0.031409	0.760326	0.644928
321	N	0.020849	0.783595	0.327397
322	C	0.488833	0.773864	0.347626
323	C	0.483756	0.800124	0.36068
324	C	0.011385	0.6966	0.637978
325	N	0.015774	0.673385	0.626306
326	N	0.479357	0.823339	0.372319
327	N	0.065212	0.773284	0.627103
328	H	0.072444	0.755387	0.620491
329	N	0.429927	0.72344	0.371554
330	H	0.422702	0.741342	0.378163
331	C	0.127785	0.820121	0.947949
332	N	0.152878	0.856019	0.614929
333	C	0.189076	0.868146	0.614521
334	N	0.199891	0.843062	0.614896
335	C	0.175826	0.806859	0.61457
336	N	0.139927	0.796059	0.614992
337	C	0.214744	0.905084	0.620541
338	C	0.187086	0.781194	0.620674
339	C	0.09086	0.80884	0.620764
340	O	0.160462	0.746025	0.624472
341	O	0.082284	0.83545	0.624472
342	O	0.249915	0.913629	0.624332
343	C	0.367327	0.676627	0.050546
344	N	0.342231	0.640729	0.716781
345	C	0.30603	0.628604	0.717107
346	N	0.295227	0.653697	0.716771
347	C	0.319305	0.689894	0.717187
348	N	0.355205	0.700705	0.716858
349	C	0.28038	0.591672	0.710993
350	C	0.308044	0.715562	0.711123
351	C	0.404259	0.687883	0.711179
352	O	0.334666	0.750742	0.707382
353	O	0.412789	0.661246	0.707349
354	O	0.245205	0.583119	0.707226
355	C	0.259541	0.726528	0.686975
356	N	0.28281	0.760353	0.004502
357	C	0.273078	0.782638	0.984271
358	C	0.235611	0.770255	0.978118
359	N	0.212344	0.736435	0.660607
360	C	0.222073	0.714151	0.680845
361	C	0.195811	0.682825	0.693926
362	C	0.299337	0.813969	0.971197
363	N	0.322553	0.84158	0.959541
364	N	0.172593	0.65522	0.705588
365	N	0.22265	0.791104	0.960312
366	H	0.240547	0.816229	0.95369
367	N	0.27249	0.705674	0.70479
368	H	0.254589	0.680546	0.711405
369	C	0.269447	0.532225	0.686832
370	N	0.235604	0.52165	0.004405
371	C	0.213311	0.989627	0.984191
372	C	0.225693	0.964542	0.978041
373	N	0.25954	0.97512	0.660458
374	C	0.281833	0.507143	0.680669
375	C	0.313184	0.512234	0.693683
376	C	0.181961	0.984536	0.971177
377	N	0.154333	0.980127	0.959575
378	N	0.340811	0.516643	0.705285
379	N	0.204841	0.930739	0.960226
380	H	0.17971	0.923501	0.953624
381	N	0.290296	0.566028	0.704651
382	H	0.315427	0.573263	0.711249
383	C	0.463743	0.736395	0.687101
384	N	0.474301	0.713128	0.004621
385	C	0.006321	0.722859	0.9844
386	C	0.031409	0.760326	0.978264
387	N	0.020849	0.783595	0.66073
388	C	0.488833	0.773864	0.680961
389	C	0.483756	0.800124	0.694015
390	C	0.011385	0.6966	0.97131
391	N	0.015774	0.673385	0.959641
392	N	0.479357	0.823339	0.705654
393	N	0.065212	0.773284	0.960438
394	H	0.072444	0.755387	0.953823
395	N	0.429927	0.72344	0.704887
396	H	0.422702	0.741342	0.711498
397	C	0.627784	0.32012	0.281283
398	N	0.652878	0.356019	0.948265
399	C	0.689076	0.368146	0.947856
400	N	0.699891	0.343061	0.948228
401	C	0.675825	0.306859	0.947906
402	N	0.639926	0.296059	0.948328
403	C	0.714743	0.405084	0.953876
404	C	0.687087	0.281196	0.954009
405	C	0.590861	0.308842	0.954099
406	O	0.660461	0.246025	0.957804
407	O	0.582283	0.335449	0.957807
408	O	0.749915	0.413629	0.957664
409	C	0.867328	0.176629	0.383878
410	N	0.842232	0.140729	0.050115
411	C	0.80603	0.128604	0.05044
412	N	0.795229	0.153698	0.050103
413	C	0.819305	0.189894	0.050519
414	N	0.855205	0.200704	0.05019
415	C	0.78038	0.091674	0.044326
416	C	0.808045	0.215563	0.044456
417	C	0.904258	0.187883	0.044513
418	O	0.834665	0.250742	0.040715
419	O	0.91279	0.161248	0.040683
420	O	0.745207	0.083119	0.040559
421	C	0.759541	0.226527	0.020307
422	N	0.782809	0.260354	0.337834
423	C	0.773079	0.28264	0.317604
424	C	0.735612	0.270256	0.31145
425	N	0.712345	0.236435	0.993943
426	C	0.722074	0.214151	0.014176
427	C	0.695812	0.182825	0.027258
428	C	0.799337	0.313968	0.304531
429	N	0.822552	0.341579	0.292876
430	N	0.672592	0.15522	0.03892
431	N	0.72265	0.291103	0.293645
432	H	0.740548	0.316229	0.287024
433	N	0.77249	0.205674	0.038123
434	H	0.75459	0.180547	0.044739
435	C	0.769447	0.032225	0.020165
436	N	0.735604	0.02165	0.337738
437	C	0.713312	0.489629	0.317525
438	C	0.725694	0.464544	0.311373
439	N	0.75954	0.475119	0.99379
440	C	0.781834	0.007143	0.014001
441	C	0.813184	0.012234	0.027016
442	C	0.681962	0.484538	0.304511
443	N	0.654334	0.480129	0.292908
444	N	0.840812	0.016645	0.038619
445	N	0.704841	0.430738	0.293558
446	H	0.679711	0.423504	0.286958
447	N	0.790297	0.066029	0.037984
448	H	0.815427	0.073263	0.044581
449	C	0.963742	0.236396	0.020435
450	N	0.9743	0.213129	0.337954
451	C	0.506321	0.222859	0.317735
452	C	0.531409	0.260327	0.311595
453	N	0.520849	0.283595	0.994062
454	C	0.988833	0.273864	0.014293
455	C	0.983757	0.300124	0.027348
456	C	0.511385	0.196601	0.304644
457	N	0.515774	0.173384	0.292973
458	N	0.979357	0.323341	0.038986
459	N	0.565211	0.273283	0.293771
460	H	0.572444	0.255389	0.287156
461	N	0.929929	0.223442	0.03822
462	H	0.922704	0.241342	0.044831
463	C	0.627784	0.32012	0.614617
464	N	0.652878	0.356019	0.281597
465	C	0.689076	0.368146	0.281188
466	N	0.699891	0.343061	0.281562
467	C	0.675825	0.306859	0.281238
468	N	0.639926	0.296059	0.28166
469	C	0.714743	0.405084	0.287209
470	C	0.687087	0.281196	0.287342
471	C	0.590861	0.308842	0.287431
472	O	0.660461	0.246025	0.291136
473	O	0.582283	0.335449	0.291139
474	O	0.749915	0.413629	0.290999
475	C	0.867328	0.176629	0.717213
476	N	0.842232	0.140729	0.383449
477	C	0.80603	0.128604	0.383775
478	N	0.795229	0.153698	0.383436
479	C	0.819305	0.189894	0.383851
480	N	0.855205	0.200704	0.383522
481	C	0.78038	0.091674	0.377661
482	C	0.808045	0.215563	0.377791
483	C	0.904258	0.187883	0.377847
484	O	0.834665	0.250742	0.37405
485	O	0.91279	0.161248	0.374016
486	O	0.745207	0.083119	0.373894
487	C	0.759541	0.226527	0.353639
488	N	0.782809	0.260354	0.67117
489	C	0.773079	0.28264	0.650939
490	C	0.735612	0.270256	0.644782
491	N	0.712345	0.236435	0.327275
492	C	0.722074	0.214151	0.347509
493	C	0.695812	0.182825	0.36059
494	C	0.799337	0.313968	0.637865
495	N	0.822552	0.341579	0.626209
496	N	0.672592	0.15522	0.372252
497	N	0.72265	0.291103	0.62698
498	H	0.740548	0.316229	0.620358
499	N	0.77249	0.205674	0.371455
500	H	0.75459	0.180547	0.378073
501	C	0.769447	0.032225	0.3535
502	N	0.735604	0.02165	0.671073
503	C	0.713312	0.489629	0.650859
504	C	0.725694	0.464544	0.644706
505	N	0.75954	0.475119	0.327124
506	C	0.781834	0.007143	0.347333
507	C	0.813184	0.012234	0.360348
508	C	0.681962	0.484538	0.637845
509	N	0.654334	0.480129	0.626242
510	N	0.840812	0.016645	0.371953
511	N	0.704841	0.430738	0.62689
512	H	0.679711	0.423504	0.620292
513	N	0.790297	0.066029	0.371319
514	H	0.815427	0.073263	0.377914
515	C	0.963742	0.236396	0.353769
516	N	0.9743	0.213129	0.671286
517	C	0.506321	0.222859	0.651068
518	C	0.531409	0.260327	0.644928
519	N	0.520849	0.283595	0.327397
520	C	0.988833	0.273864	0.347626
521	C	0.983757	0.300124	0.36068
522	C	0.511385	0.196601	0.637978
523	N	0.515774	0.173384	0.626306
524	N	0.979357	0.323341	0.372319
525	N	0.565211	0.273283	0.627103
526	H	0.572444	0.255389	0.620491
527	N	0.929929	0.223442	0.371554
528	H	0.922704	0.241342	0.378163
529	C	0.627784	0.32012	0.947949
530	N	0.652878	0.356019	0.614929
531	C	0.689076	0.368146	0.614521
532	N	0.699891	0.343061	0.614896
533	C	0.675825	0.306859	0.61457
534	N	0.639926	0.296059	0.614992
535	C	0.714743	0.405084	0.620541
536	C	0.687087	0.281196	0.620674
537	C	0.590861	0.308842	0.620764
538	O	0.660461	0.246025	0.624472
539	O	0.582283	0.335449	0.624472
540	O	0.749915	0.413629	0.624332
541	C	0.867328	0.176629	0.050546
542	N	0.842232	0.140729	0.716781
543	C	0.80603	0.128604	0.717107
544	N	0.795229	0.153698	0.716771
545	C	0.819305	0.189894	0.717187
546	N	0.855205	0.200704	0.716858
547	C	0.78038	0.091674	0.710993
548	C	0.808045	0.215563	0.711123
549	C	0.904258	0.187883	0.711179
550	O	0.834665	0.250742	0.707382
551	O	0.91279	0.161248	0.707349
552	O	0.745207	0.083119	0.707226
553	C	0.759541	0.226527	0.686975
554	N	0.782809	0.260354	0.004502
555	C	0.773079	0.28264	0.984271
556	C	0.735612	0.270256	0.978118
557	N	0.712345	0.236435	0.660607
558	C	0.722074	0.214151	0.680845
559	C	0.695812	0.182825	0.693926
560	C	0.799337	0.313968	0.971197
561	N	0.822552	0.341579	0.959541
562	N	0.672592	0.15522	0.705588
563	N	0.72265	0.291103	0.960312
564	H	0.740548	0.316229	0.95369
565	N	0.77249	0.205674	0.70479
566	H	0.75459	0.180547	0.711405
567	C	0.769447	0.032225	0.686832
568	N	0.735604	0.02165	0.004405
569	C	0.713312	0.489629	0.984191
570	C	0.725694	0.464544	0.978041
571	N	0.75954	0.475119	0.660458
572	C	0.781834	0.007143	0.680669
573	C	0.813184	0.012234	0.693683
574	C	0.681962	0.484538	0.971177
575	N	0.654334	0.480129	0.959575
576	N	0.840812	0.016645	0.705285
577	N	0.704841	0.430738	0.960226
578	H	0.679711	0.423504	0.953624
579	N	0.790297	0.066029	0.704651
580	H	0.815427	0.073263	0.711249
581	C	0.963742	0.236396	0.687101
582	N	0.9743	0.213129	0.004621
583	C	0.506321	0.222859	0.9844
584	C	0.531409	0.260327	0.978264
585	N	0.520849	0.283595	0.66073
586	C	0.988833	0.273864	0.680961
587	C	0.983757	0.300124	0.694015
588	C	0.511385	0.196601	0.97131
589	N	0.515774	0.173384	0.959641
590	N	0.979357	0.323341	0.705654
591	N	0.565211	0.273283	0.960438
592	H	0.572444	0.255389	0.953823
593	N	0.929929	0.223442	0.704887
594	H	0.922704	0.241342	0.711498
595	C	0.627785	0.820121	0.281283
596	N	0.652878	0.856019	0.948265
597	C	0.689076	0.868146	0.947856
598	N	0.699891	0.843062	0.948228
599	C	0.675826	0.806859	0.947906
600	N	0.639927	0.796059	0.948328
601	C	0.714744	0.905084	0.953876
602	C	0.687086	0.781194	0.954009
603	C	0.590861	0.80884	0.954099
604	O	0.660461	0.746025	0.957804
605	O	0.582284	0.83545	0.957807
606	O	0.749915	0.913629	0.957664
607	C	0.867328	0.676627	0.383878
608	N	0.842232	0.640729	0.050115
609	C	0.80603	0.628604	0.05044
610	N	0.795226	0.653697	0.050103
611	C	0.819306	0.689894	0.050519
612	N	0.855205	0.700705	0.05019
613	C	0.78038	0.591672	0.044326
614	C	0.808044	0.715562	0.044456
615	C	0.904258	0.687883	0.044513
616	O	0.834665	0.750742	0.040715
617	O	0.912789	0.661246	0.040683
618	O	0.745207	0.583119	0.040559
619	C	0.759542	0.726528	0.020307
620	N	0.782809	0.760353	0.337834
621	C	0.773078	0.782638	0.317604
622	C	0.735612	0.770255	0.31145
623	N	0.712345	0.736435	0.993943
624	C	0.722074	0.714151	0.014176
625	C	0.695812	0.682825	0.027258
626	C	0.799337	0.813969	0.304531
627	N	0.822553	0.84158	0.292876
628	N	0.672592	0.65522	0.03892
629	N	0.722651	0.791104	0.293645
630	H	0.740548	0.816229	0.287024
631	N	0.772491	0.705674	0.038122
632	H	0.754589	0.680546	0.044739
633	C	0.769447	0.532225	0.020165
634	N	0.735604	0.52165	0.337738
635	C	0.713311	0.989627	0.317525
636	C	0.725693	0.964542	0.311373
637	N	0.75954	0.97512	0.99379
638	C	0.781833	0.507143	0.014001
639	C	0.813183	0.512234	0.027016
640	C	0.68196	0.984536	0.304511
641	N	0.654332	0.980127	0.292908
642	N	0.840811	0.516643	0.038619
643	N	0.704841	0.930739	0.293558
644	H	0.679711	0.923501	0.286958
645	N	0.790297	0.566028	0.037984
646	H	0.815427	0.573263	0.044581
647	C	0.963742	0.736395	0.020435
648	N	0.9743	0.713128	0.337954
649	C	0.506321	0.722859	0.317735
650	C	0.531408	0.760326	0.311595
651	N	0.520849	0.783595	0.994062
652	C	0.988833	0.773864	0.014293
653	C	0.983757	0.800124	0.027348
654	C	0.511385	0.6966	0.304644
655	N	0.515774	0.673385	0.292973
656	N	0.979356	0.823339	0.038986
657	N	0.565211	0.773284	0.293771
658	H	0.572444	0.755387	0.287156
659	N	0.929928	0.72344	0.03822
660	H	0.922704	0.741342	0.044831
661	C	0.627785	0.820121	0.614617
662	N	0.652878	0.856019	0.281597
663	C	0.689076	0.868146	0.281188
664	N	0.699891	0.843062	0.281562
665	C	0.675826	0.806859	0.281238
666	N	0.639927	0.796059	0.28166
667	C	0.714744	0.905084	0.287209
668	C	0.687086	0.781194	0.287342
669	C	0.590861	0.80884	0.287431
670	O	0.660461	0.746025	0.291136
671	O	0.582284	0.83545	0.291139
672	O	0.749915	0.913629	0.290999
673	C	0.867328	0.676627	0.717213
674	N	0.842232	0.640729	0.383449
675	C	0.80603	0.628604	0.383775
676	N	0.795226	0.653697	0.383436
677	C	0.819306	0.689894	0.383851
678	N	0.855205	0.700705	0.383522
679	C	0.78038	0.591672	0.377661
680	C	0.808044	0.715562	0.377791
681	C	0.904258	0.687883	0.377847
682	O	0.834665	0.750742	0.37405
683	O	0.912789	0.661246	0.374016
684	O	0.745207	0.583119	0.373894
685	C	0.759542	0.726528	0.353639
686	N	0.782809	0.760353	0.67117
687	C	0.773078	0.782638	0.650939
688	C	0.735612	0.770255	0.644782
689	N	0.712345	0.736435	0.327275
690	C	0.722074	0.714151	0.347509
691	C	0.695812	0.682825	0.36059
692	C	0.799337	0.813969	0.637865
693	N	0.822553	0.84158	0.626209
694	N	0.672592	0.65522	0.372252
695	N	0.722651	0.791104	0.62698
696	H	0.740548	0.816229	0.620358
697	N	0.772491	0.705674	0.371455
698	H	0.754589	0.680546	0.378073
699	C	0.769447	0.532225	0.3535
700	N	0.735604	0.52165	0.671073
701	C	0.713311	0.989627	0.650859
702	C	0.725693	0.964542	0.644706
703	N	0.75954	0.97512	0.327124
704	C	0.781833	0.507143	0.347333
705	C	0.813183	0.512234	0.360348
706	C	0.68196	0.984536	0.637845
707	N	0.654332	0.980127	0.626242
708	N	0.840811	0.516643	0.371953
709	N	0.704841	0.930739	0.62689
710	H	0.679711	0.923501	0.620292
711	N	0.790297	0.566028	0.371319
712	H	0.815427	0.573263	0.377914
713	C	0.963742	0.736395	0.353769
714	N	0.9743	0.713128	0.671286
715	C	0.506321	0.722859	0.651068
716	C	0.531408	0.760326	0.644928
717	N	0.520849	0.783595	0.327397
718	C	0.988833	0.773864	0.347626
719	C	0.983757	0.800124	0.36068
720	C	0.511385	0.6966	0.637978
721	N	0.515774	0.673385	0.626306
722	N	0.979356	0.823339	0.372319
723	N	0.565211	0.773284	0.627103
724	H	0.572444	0.755387	0.620491
725	N	0.929928	0.72344	0.371554
726	H	0.922704	0.741342	0.378163
727	C	0.627785	0.820121	0.947949
728	N	0.652878	0.856019	0.614929
729	C	0.689076	0.868146	0.614521
730	N	0.699891	0.843062	0.614896
731	C	0.675826	0.806859	0.61457
732	N	0.639927	0.796059	0.614992
733	C	0.714744	0.905084	0.620541
734	C	0.687086	0.781194	0.620674
735	C	0.590861	0.80884	0.620764
736	O	0.660461	0.746025	0.624472
737	O	0.582284	0.83545	0.624472
738	O	0.749915	0.913629	0.624332
739	C	0.867328	0.676627	0.050546
740	N	0.842232	0.640729	0.716781
741	C	0.80603	0.628604	0.717107
742	N	0.795226	0.653697	0.716771
743	C	0.819306	0.689894	0.717187
744	N	0.855205	0.700705	0.716858
745	C	0.78038	0.591672	0.710993
746	C	0.808044	0.715562	0.711123
747	C	0.904258	0.687883	0.711179
748	O	0.834665	0.750742	0.707382
749	O	0.912789	0.661246	0.707349
750	O	0.745207	0.583119	0.707226
751	C	0.759542	0.726528	0.686975
752	N	0.782809	0.760353	0.004502
753	C	0.773078	0.782638	0.984271
754	C	0.735612	0.770255	0.978118
755	N	0.712345	0.736435	0.660607
756	C	0.722074	0.714151	0.680845
757	C	0.695812	0.682825	0.693926
758	C	0.799337	0.813969	0.971197
759	N	0.822553	0.84158	0.959541
760	N	0.672592	0.65522	0.705588
761	N	0.722651	0.791104	0.960312
762	H	0.740548	0.816229	0.95369
763	N	0.772491	0.705674	0.70479
764	H	0.754589	0.680546	0.711405
765	C	0.769447	0.532225	0.686832
766	N	0.735604	0.52165	0.004405
767	C	0.713311	0.989627	0.984191
768	C	0.725693	0.964542	0.978041
769	N	0.75954	0.97512	0.660458
770	C	0.781833	0.507143	0.680669
771	C	0.813183	0.512234	0.693683
772	C	0.68196	0.984536	0.971177
773	N	0.654332	0.980127	0.959575
774	N	0.840811	0.516643	0.705285
775	N	0.704841	0.930739	0.960226
776	H	0.679711	0.923501	0.953624
777	N	0.790297	0.566028	0.704651
778	H	0.815427	0.573263	0.711249
779	C	0.963742	0.736395	0.687101
780	N	0.9743	0.713128	0.004621
781	C	0.506321	0.722859	0.9844
782	C	0.531408	0.760326	0.978264
783	N	0.520849	0.783595	0.66073
784	C	0.988833	0.773864	0.680961
785	C	0.983757	0.800124	0.694015
786	C	0.511385	0.6966	0.97131
787	N	0.515774	0.673385	0.959641
788	N	0.979356	0.823339	0.705654
789	N	0.565211	0.773284	0.960438
790	H	0.572444	0.755387	0.953823
791	N	0.929928	0.72344	0.704887
792	H	0.922704	0.741342	0.711498
