data_C168H102N36_2018-02-15_10:48:10
#******************************************
#
# CIF file created by Zeo++
# Zeo++ is an open source package to
# analyze microporous materials
#
#*******************************************

_cell_length_a		25.5985   
_cell_length_b		25.5963   
_cell_length_c		29.3576   
_cell_angle_alpha		90   
_cell_angle_beta		90   
_cell_angle_gamma		89.97   

_symmetry_space_group_name_H-M		'P1'
_symmetry_Int_Tables_number		1
_symmetry_cell_setting		Monoclinic

loop_
_symmetry_equiv_pos_as_xyz
'+x,+y,+z'

loop_
_atom_site_label
_atom_site_type_symbol
_atom_site_fract_x
_atom_site_fract_y
_atom_site_fract_z
1	C	0.78765	0.003015	0.044328
2	C	0.73258	0.003578	0.043951
3	C	0.017743	0.788723	0.040714
4	C	0.018071	0.733664	0.039615
5	C	0.287311	0.019173	0.039635
6	C	0.23226	0.019166	0.040785
7	C	0.00171	0.233123	0.044226
8	C	0.002029	0.288201	0.043881
9	H	0.994991	0.307773	0.07367
10	H	0.994595	0.213969	0.074196
11	H	0.213658	0.026235	0.071031
12	H	0.307217	0.026383	0.06913
13	H	0.024795	0.807405	0.07092
14	H	0.025535	0.713818	0.069098
15	H	0.712962	0.996421	0.07369
16	H	0.806753	0.995561	0.074265
17	N	0.01428	0.525001	0.038927
18	N	0.013573	0.475162	0.028483
19	C	0.01275	0.615714	0.022086
20	H	0.016836	0.622683	0.055186
21	N	0.495865	0.01613	0.038737
22	N	0.545708	0.01543	0.028323
23	C	0.405184	0.0141	0.021907
24	H	0.398236	0.018536	0.054974
25	C	0.733445	0.023474	0.2965
26	C	0.788464	0.022741	0.296728
27	C	0.99892	0.735723	0.291992
28	C	0.998758	0.790739	0.29296
29	C	0.230042	0.000714	0.29295
30	C	0.285058	0.000523	0.291933
31	C	0.021128	0.232451	0.296569
32	C	0.021651	0.287469	0.296381
33	H	0.02984	0.306147	0.266476
34	H	0.028477	0.212831	0.266862
35	H	0.209871	0.994163	0.263389
36	H	0.303552	0.99378	0.261567
37	H	0.991782	0.810843	0.263433
38	H	0.992031	0.717154	0.261689
39	H	0.808137	0.029987	0.267033
40	H	0.714799	0.031759	0.266595
41	C	0.007113	0.495325	0.283411
42	C	0.00785	0.548731	0.294664
43	H	0.005766	0.575837	0.269114
44	H	0.004458	0.484663	0.24988
45	H	0.006353	0.393611	0.275789
46	C	0.525624	0.007723	0.283326
47	C	0.472211	0.00845	0.294548
48	H	0.445129	0.005899	0.269017
49	H	0.536322	0.004602	0.249834
50	H	0.627392	0.007321	0.275781
51	C	0.913399	0.147229	0.337321
52	C	0.874998	0.109366	0.337589
53	C	0.899107	0.06036	0.337377
54	N	0.951175	0.070492	0.337407
55	C	0.962047	0.122418	0.337446
56	C	0.011165	0.148624	0.337308
57	C	0.060466	0.122977	0.336672
58	N	0.070285	0.071025	0.336255
59	C	0.12209	0.060481	0.335662
60	C	0.147146	0.108948	0.335536
61	C	0.10928	0.147351	0.336494
62	C	0.147031	0.010825	0.334988
63	C	0.120135	0.96208	0.33478
64	N	0.068068	0.951953	0.335218
65	C	0.057202	0.900032	0.33488
66	C	0.105848	0.875227	0.334073
67	C	0.144254	0.913084	0.334311
68	C	0.008075	0.873844	0.334956
69	C	0.958765	0.899461	0.335552
70	N	0.948937	0.951406	0.336308
71	C	0.897131	0.961947	0.336844
72	C	0.872077	0.913479	0.336248
73	C	0.909963	0.875071	0.335735
74	C	0.872202	0.011611	0.337397
75	C	0.816288	0.012443	0.337316
76	C	0.704554	0.013395	0.336727
77	C	0.008135	0.817942	0.334043
78	C	0.00851	0.706352	0.331851
79	C	0.202934	0.01002	0.334097
80	C	0.31453	0.009751	0.331796
81	C	0.011132	0.204552	0.337172
82	C	0.01164	0.316303	0.33666
83	H	0.906186	0.186499	0.337123
84	H	0.83584	0.117143	0.337782
85	H	0.977503	0.043788	0.337546
86	H	0.041739	0.978652	0.335595
87	H	0.116828	0.186549	0.33682
88	H	0.18644	0.115942	0.334965
89	H	0.183416	0.905322	0.334075
90	H	0.113056	0.83596	0.333491
91	H	0.832774	0.906498	0.33621
92	H	0.902452	0.835862	0.335408
93	N	0.008553	0.654442	0.327654
94	N	0.366437	0.009692	0.327527
95	N	0.011716	0.368537	0.339102
96	N	0.65232	0.013412	0.339088
97	C	0.010035	0.457281	0.318234
98	C	0.011538	0.564066	0.007481
99	C	0.009403	0.404242	0.308238
100	C	0.563633	0.011304	0.318127
101	C	0.456833	0.012787	0.007315
102	C	0.616687	0.010704	0.308189
103	C	0.913399	0.147229	0.670652
104	C	0.874998	0.109366	0.670921
105	C	0.899107	0.06036	0.67071
106	N	0.951175	0.070492	0.67074
107	C	0.962047	0.122418	0.670778
108	C	0.011165	0.148624	0.670642
109	C	0.060466	0.122977	0.670005
110	N	0.070285	0.071025	0.669589
111	C	0.12209	0.060481	0.668996
112	C	0.147146	0.108948	0.66887
113	C	0.10928	0.147351	0.669827
114	C	0.147031	0.010825	0.668322
115	C	0.120135	0.96208	0.668114
116	N	0.068068	0.951953	0.66855
117	C	0.057202	0.900032	0.668213
118	C	0.105848	0.875227	0.667406
119	C	0.144254	0.913084	0.667644
120	C	0.008075	0.873844	0.668288
121	C	0.958765	0.899461	0.668884
122	N	0.948937	0.951406	0.66964
123	C	0.897131	0.961947	0.670178
124	C	0.872077	0.913479	0.669582
125	C	0.909963	0.875071	0.669068
126	C	0.872202	0.011611	0.67073
127	C	0.816288	0.012443	0.670648
128	C	0.78765	0.003015	0.377661
129	C	0.73258	0.003578	0.377283
130	C	0.704554	0.013395	0.670059
131	C	0.733445	0.023474	0.629834
132	C	0.788464	0.022741	0.630059
133	C	0.008135	0.817942	0.667375
134	C	0.017743	0.788723	0.374047
135	C	0.018071	0.733664	0.37295
136	C	0.00851	0.706352	0.665185
137	C	0.99892	0.735723	0.625324
138	C	0.998758	0.790739	0.626292
139	C	0.202934	0.01002	0.667429
140	C	0.230042	0.000714	0.626285
141	C	0.285058	0.000523	0.625266
142	C	0.31453	0.009751	0.665127
143	C	0.287311	0.019173	0.372967
144	C	0.23226	0.019166	0.374118
145	C	0.011132	0.204552	0.670505
146	C	0.021128	0.232451	0.629902
147	C	0.00171	0.233123	0.377559
148	C	0.002029	0.288201	0.377215
149	C	0.01164	0.316303	0.669994
150	C	0.021651	0.287469	0.629715
151	H	0.02984	0.306147	0.599808
152	H	0.028477	0.212831	0.600196
153	H	0.994991	0.307773	0.407002
154	H	0.994595	0.213969	0.40753
155	H	0.906186	0.186499	0.670458
156	H	0.83584	0.117143	0.671115
157	H	0.977503	0.043788	0.67088
158	H	0.041739	0.978652	0.668928
159	H	0.116828	0.186549	0.670154
160	H	0.18644	0.115942	0.668298
161	H	0.209871	0.994163	0.596722
162	H	0.303552	0.99378	0.5949
163	H	0.213658	0.026235	0.404363
164	H	0.307217	0.026383	0.402462
165	H	0.183416	0.905322	0.667409
166	H	0.113056	0.83596	0.666823
167	H	0.832774	0.906498	0.669545
168	H	0.902452	0.835862	0.668741
169	H	0.024795	0.807405	0.404254
170	H	0.025535	0.713818	0.402431
171	H	0.991782	0.810843	0.596766
172	H	0.992031	0.717154	0.595022
173	H	0.808137	0.029987	0.600367
174	H	0.714799	0.031759	0.599927
175	H	0.712962	0.996421	0.407023
176	H	0.806753	0.995561	0.407599
177	N	0.008553	0.654442	0.660988
178	N	0.366437	0.009692	0.660859
179	N	0.011716	0.368537	0.672437
180	N	0.65232	0.013412	0.672423
181	C	0.010035	0.457281	0.651566
182	C	0.007113	0.495325	0.616744
183	C	0.00785	0.548731	0.627998
184	C	0.011538	0.564066	0.340818
185	N	0.01428	0.525001	0.372258
186	H	0.005766	0.575837	0.602448
187	H	0.004458	0.484663	0.583213
188	N	0.013573	0.475162	0.361815
189	C	0.009403	0.404242	0.641572
190	H	0.006353	0.393611	0.609121
191	C	0.01275	0.615714	0.355418
192	H	0.016836	0.622683	0.38852
193	C	0.563633	0.011304	0.651461
194	C	0.525624	0.007723	0.616659
195	C	0.472211	0.00845	0.627879
196	C	0.456833	0.012787	0.340648
197	N	0.495865	0.01613	0.372071
198	H	0.445129	0.005899	0.602349
199	H	0.536322	0.004602	0.583168
200	N	0.545708	0.01543	0.361655
201	C	0.616687	0.010704	0.641521
202	H	0.627392	0.007321	0.609114
203	C	0.405184	0.0141	0.355241
204	H	0.398236	0.018536	0.388305
205	C	0.913399	0.147229	0.003987
206	C	0.874998	0.109366	0.004256
207	C	0.899107	0.06036	0.004045
208	N	0.951175	0.070492	0.004072
209	C	0.962047	0.122418	0.004113
210	C	0.011165	0.148624	0.003973
211	C	0.060466	0.122977	0.003336
212	N	0.070285	0.071025	0.00292
213	C	0.12209	0.060481	0.002328
214	C	0.147146	0.108948	0.002202
215	C	0.10928	0.147351	0.003159
216	C	0.147031	0.010825	0.001653
217	C	0.120135	0.96208	0.001446
218	N	0.068068	0.951953	0.001882
219	C	0.057202	0.900032	0.001544
220	C	0.105848	0.875227	0.000737
221	C	0.144254	0.913084	0.000975
222	C	0.008075	0.873844	0.001623
223	C	0.958765	0.899461	0.002219
224	N	0.948937	0.951406	0.002975
225	C	0.897131	0.961947	0.00351
226	C	0.872077	0.913479	0.002914
227	C	0.909963	0.875071	0.002399
228	C	0.872202	0.011611	0.004062
229	C	0.816288	0.012443	0.003983
230	C	0.78765	0.003015	0.710996
231	C	0.73258	0.003578	0.710618
232	C	0.704554	0.013395	0.003394
233	C	0.733445	0.023474	0.963166
234	C	0.788464	0.022741	0.963394
235	C	0.008135	0.817942	0.00071
236	C	0.017743	0.788723	0.707378
237	C	0.018071	0.733664	0.706281
238	C	0.00851	0.706352	0.998516
239	C	0.99892	0.735723	0.958659
240	C	0.998758	0.790739	0.959627
241	C	0.202934	0.01002	0.000761
242	C	0.230042	0.000714	0.959616
243	C	0.285058	0.000523	0.958598
244	C	0.31453	0.009751	0.998462
245	C	0.287311	0.019173	0.706302
246	C	0.23226	0.019166	0.70745
247	C	0.011132	0.204552	0.003837
248	C	0.021128	0.232451	0.963234
249	C	0.00171	0.233123	0.71089
250	C	0.002029	0.288201	0.710546
251	C	0.01164	0.316303	0.003326
252	C	0.021651	0.287469	0.963047
253	H	0.02984	0.306147	0.933143
254	H	0.028477	0.212831	0.933528
255	H	0.994991	0.307773	0.740337
256	H	0.994595	0.213969	0.740862
257	H	0.906186	0.186499	0.003789
258	H	0.83584	0.117143	0.00445
259	H	0.977503	0.043788	0.004211
260	H	0.041739	0.978652	0.00226
261	H	0.116828	0.186549	0.003486
262	H	0.18644	0.115942	0.001629
263	H	0.209871	0.994163	0.930053
264	H	0.303552	0.99378	0.928234
265	H	0.213658	0.026235	0.737697
266	H	0.307217	0.026383	0.735797
267	H	0.183416	0.905322	0.00074
268	H	0.113056	0.83596	0.000158
269	H	0.832774	0.906498	0.002876
270	H	0.902452	0.835862	0.002072
271	H	0.024795	0.807405	0.737585
272	H	0.025535	0.713818	0.735763
273	H	0.991782	0.810843	0.930098
274	H	0.992031	0.717154	0.928354
275	H	0.808137	0.029987	0.933698
276	H	0.714799	0.031759	0.933262
277	H	0.712962	0.996421	0.740354
278	H	0.806753	0.995561	0.74093
279	N	0.008553	0.654442	0.99432
280	N	0.366437	0.009692	0.994194
281	N	0.011716	0.368537	0.005768
282	N	0.65232	0.013412	0.005754
283	C	0.010035	0.457281	0.984898
284	C	0.007113	0.495325	0.950075
285	C	0.00785	0.548731	0.96133
286	C	0.011538	0.564066	0.67415
287	N	0.01428	0.525001	0.705593
288	H	0.005766	0.575837	0.935779
289	H	0.004458	0.484663	0.916547
290	N	0.013573	0.475162	0.69515
291	C	0.009403	0.404242	0.974904
292	H	0.006353	0.393611	0.942456
293	C	0.01275	0.615714	0.688753
294	H	0.016836	0.622683	0.721851
295	C	0.563633	0.011304	0.984792
296	C	0.525624	0.007723	0.94999
297	C	0.472211	0.00845	0.961214
298	C	0.456833	0.012787	0.67398
299	N	0.495865	0.01613	0.705403
300	H	0.445129	0.005899	0.935684
301	H	0.536322	0.004602	0.9165
302	N	0.545708	0.01543	0.69499
303	C	0.616687	0.010704	0.974856
304	H	0.627392	0.007321	0.942445
305	C	0.405184	0.0141	0.688572
306	H	0.398236	0.018536	0.72164
