data_C288H72N144O144_2018-02-15_10:38:38
#******************************************
#
# CIF file created by Zeo++
# Zeo++ is an open source package to
# analyze microporous materials
#
#*******************************************

_cell_length_a		29.5854   
_cell_length_b		29.5854   
_cell_length_c		29.945   
_cell_angle_alpha		90   
_cell_angle_beta		90   
_cell_angle_gamma		120   

_symmetry_space_group_name_H-M		'P1'
_symmetry_Int_Tables_number		1
_symmetry_cell_setting		Monoclinic

loop_
_symmetry_equiv_pos_as_xyz
'+x,+y,+z'

loop_
_atom_site_label
_atom_site_type_symbol
_atom_site_fract_x
_atom_site_fract_y
_atom_site_fract_z
1	C	0.02639	0.303216	0.319933
2	C	0.02639	0.303216	0.653265
3	C	0.02639	0.303216	0.986599
4	C	0.026389	0.803216	0.319933
5	C	0.026389	0.803216	0.653265
6	C	0.026389	0.803216	0.986599
7	C	0.194101	0.388624	0.997232
8	N	0.141218	0.360795	0.996084
9	C	0.113101	0.308016	0.997276
10	N	0.14098	0.282739	0.999506
11	C	0.194028	0.306718	0.9997
12	N	0.218958	0.360057	0.998872
13	C	0.308658	0.113214	0.006164
14	N	0.361541	0.141045	0.007329
15	C	0.389655	0.193823	0.006148
16	N	0.361776	0.219101	0.003929
17	C	0.308728	0.195119	0.003718
18	N	0.283799	0.141781	0.004529
19	C	0.281533	0.223839	0.002572
20	C	0.306505	0.279478	0.002376
21	C	0.276563	0.304994	0.001507
22	C	0.221222	0.277997	0.334183
23	C	0.196251	0.22236	0.33438
24	H	0.296551	0.344957	0.001428
25	C	0.226192	0.196843	0.335245
26	H	0.206205	0.15688	0.335325
27	N	0.141077	0.191511	0.33347
28	N	0.361678	0.310327	0.003284
29	O	0.124921	0.163408	0.299123
30	O	0.377835	0.338432	0.037629
31	O	0.379446	0.338681	0.969208
32	O	0.123308	0.163154	0.367541
33	C	0.28172	0.057643	0.004716
34	C	0.306165	0.02653	0.004614
35	C	0.27602	0.471451	0.001481
36	C	0.221041	0.444197	0.331997
37	C	0.196595	0.475307	0.332106
38	H	0.295608	0.451062	0.001631
39	C	0.22674	0.030387	0.335242
40	H	0.207152	0.050778	0.335095
41	N	0.141973	0.452713	0.328897
42	N	0.360787	0.049125	0.007827
43	O	0.129318	0.46877	0.294793
44	O	0.373441	0.033071	0.041933
45	O	0.379497	0.039782	0.973636
46	O	0.123266	0.462057	0.363089
47	C	0.445024	0.220839	0.004926
48	C	0.476366	0.198631	0.01685
49	C	0.031367	0.228737	0.013457
50	C	0.057734	0.281014	0.331874
51	H	0.052468	0.21189	0.023984
52	C	0.471392	0.273128	0.323374
53	H	0.450292	0.28995	0.312783
54	N	0.048529	0.353662	0.301056
55	N	0.454225	0.148164	0.035684
56	O	0.03789	0.351111	0.260169
57	O	0.464845	0.150663	0.076573
58	O	0.470965	0.121357	0.016799
59	O	0.0318	0.380494	0.319912
60	C	0.194101	0.388624	0.330567
61	N	0.141218	0.360795	0.329416
62	C	0.113101	0.308016	0.33061
63	N	0.14098	0.282739	0.332839
64	C	0.194028	0.306718	0.333033
65	N	0.218958	0.360057	0.332205
66	C	0.308658	0.113214	0.339496
67	N	0.361541	0.141045	0.340661
68	C	0.389655	0.193823	0.339483
69	N	0.361776	0.219101	0.337262
70	C	0.308728	0.195119	0.337051
71	N	0.283799	0.141781	0.337863
72	C	0.281533	0.223839	0.335906
73	C	0.306505	0.279478	0.335709
74	C	0.276563	0.304994	0.334841
75	C	0.221222	0.277997	0.667518
76	C	0.196251	0.22236	0.667711
77	H	0.296551	0.344957	0.334761
78	C	0.226192	0.196843	0.66858
79	H	0.206205	0.15688	0.668656
80	N	0.141077	0.191511	0.666803
81	N	0.361678	0.310327	0.336617
82	O	0.124921	0.163408	0.632457
83	O	0.377835	0.338432	0.370964
84	O	0.379446	0.338681	0.302543
85	O	0.123308	0.163154	0.700875
86	C	0.28172	0.057643	0.33805
87	C	0.306165	0.02653	0.337946
88	C	0.27602	0.471451	0.334814
89	C	0.221041	0.444197	0.66533
90	C	0.196595	0.475307	0.66544
91	H	0.295608	0.451062	0.334964
92	C	0.22674	0.030387	0.668576
93	H	0.207152	0.050778	0.668429
94	N	0.141973	0.452713	0.662231
95	N	0.360787	0.049125	0.341159
96	O	0.129318	0.46877	0.628125
97	O	0.373441	0.033071	0.375265
98	O	0.379497	0.039782	0.30697
99	O	0.123266	0.462057	0.696424
100	C	0.445024	0.220839	0.33826
101	C	0.476366	0.198631	0.350182
102	C	0.031367	0.228737	0.346789
103	C	0.057734	0.281014	0.665207
104	H	0.052468	0.21189	0.357319
105	C	0.471392	0.273128	0.656708
106	H	0.450292	0.28995	0.646115
107	N	0.048529	0.353662	0.63439
108	N	0.454225	0.148164	0.369017
109	O	0.03789	0.351111	0.593502
110	O	0.464845	0.150663	0.409905
111	O	0.470965	0.121357	0.350132
112	O	0.0318	0.380494	0.653245
113	C	0.194101	0.388624	0.663901
114	N	0.141218	0.360795	0.662749
115	C	0.113101	0.308016	0.663944
116	N	0.14098	0.282739	0.666172
117	C	0.194028	0.306718	0.666365
118	N	0.218958	0.360057	0.665537
119	C	0.308658	0.113214	0.672831
120	N	0.361541	0.141045	0.673996
121	C	0.389655	0.193823	0.672814
122	N	0.361776	0.219101	0.670597
123	C	0.308728	0.195119	0.670383
124	N	0.283799	0.141781	0.671194
125	C	0.281533	0.223839	0.669237
126	C	0.306505	0.279478	0.669044
127	C	0.276563	0.304994	0.668172
128	C	0.221222	0.277997	0.000849
129	C	0.196251	0.22236	0.001047
130	H	0.296551	0.344957	0.668095
131	C	0.226192	0.196843	0.001913
132	H	0.206205	0.15688	0.001992
133	N	0.141077	0.191511	0.000134
134	N	0.361678	0.310327	0.669949
135	O	0.124921	0.163408	0.965788
136	O	0.377835	0.338432	0.704295
137	O	0.379446	0.338681	0.635876
138	O	0.123308	0.163154	0.034209
139	C	0.28172	0.057643	0.671381
140	C	0.306165	0.02653	0.671281
141	C	0.27602	0.471451	0.668149
142	C	0.221041	0.444197	0.998665
143	C	0.196595	0.475307	0.998772
144	H	0.295608	0.451062	0.668296
145	C	0.22674	0.030387	0.001908
146	H	0.207152	0.050778	0.001761
147	N	0.141973	0.452713	0.995563
148	N	0.360787	0.049125	0.674494
149	O	0.129318	0.46877	0.96146
150	O	0.373441	0.033071	0.7086
151	O	0.379497	0.039782	0.640304
152	O	0.123266	0.462057	0.029757
153	C	0.445024	0.220839	0.671592
154	C	0.476366	0.198631	0.683517
155	C	0.031367	0.228737	0.680124
156	C	0.057734	0.281014	0.998541
157	H	0.052468	0.21189	0.69065
158	C	0.471392	0.273128	0.990039
159	H	0.450292	0.28995	0.97945
160	N	0.048529	0.353662	0.967722
161	N	0.454225	0.148164	0.702351
162	O	0.03789	0.351111	0.926837
163	O	0.464845	0.150663	0.74324
164	O	0.470965	0.121357	0.683463
165	O	0.0318	0.380494	0.986579
166	C	0.194101	0.888624	0.997232
167	N	0.141217	0.860792	0.996084
168	C	0.113101	0.808017	0.997276
169	N	0.140979	0.782737	0.999506
170	C	0.194027	0.806717	0.9997
171	N	0.218957	0.860054	0.998872
172	C	0.308658	0.613213	0.006164
173	N	0.361541	0.641045	0.007329
174	C	0.389654	0.693821	0.006148
175	N	0.361776	0.7191	0.003929
176	C	0.308728	0.69512	0.003718
177	N	0.283798	0.641779	0.004529
178	C	0.281533	0.723838	0.002572
179	C	0.306505	0.779478	0.002376
180	C	0.276562	0.804992	0.001507
181	C	0.22122	0.777995	0.334183
182	C	0.19625	0.722359	0.33438
183	H	0.296551	0.844958	0.001428
184	C	0.226191	0.696841	0.335245
185	H	0.206204	0.656879	0.335325
186	N	0.141077	0.69151	0.33347
187	N	0.361678	0.810327	0.003284
188	O	0.124922	0.663409	0.299123
189	O	0.377835	0.838432	0.037629
190	O	0.379446	0.838682	0.969208
191	O	0.123306	0.663151	0.367541
192	C	0.28172	0.557643	0.004716
193	C	0.306165	0.526529	0.004614
194	C	0.27602	0.971452	0.001481
195	C	0.22104	0.944194	0.331997
196	C	0.196595	0.975308	0.332106
197	H	0.295606	0.951059	0.001631
198	C	0.226739	0.530385	0.335242
199	H	0.207153	0.550778	0.335095
200	N	0.141973	0.952714	0.328897
201	N	0.360787	0.549123	0.007827
202	O	0.129316	0.968767	0.294793
203	O	0.37344	0.53307	0.041933
204	O	0.379496	0.53978	0.973636
205	O	0.123266	0.962054	0.363089
206	C	0.445023	0.720837	0.004926
207	C	0.476366	0.698629	0.01685
208	C	0.031366	0.728736	0.013457
209	C	0.057733	0.781012	0.331874
210	H	0.052468	0.711891	0.023984
211	C	0.471392	0.773128	0.323374
212	H	0.450292	0.78995	0.312783
213	N	0.048529	0.853661	0.301056
214	N	0.454226	0.648164	0.035684
215	O	0.037892	0.851113	0.260169
216	O	0.464843	0.650662	0.076573
217	O	0.470964	0.621355	0.016799
218	O	0.031799	0.880494	0.319912
219	C	0.194101	0.888624	0.330567
220	N	0.141217	0.860792	0.329416
221	C	0.113101	0.808017	0.33061
222	N	0.140979	0.782737	0.332839
223	C	0.194027	0.806717	0.333033
224	N	0.218957	0.860054	0.332205
225	C	0.308658	0.613213	0.339496
226	N	0.361541	0.641045	0.340661
227	C	0.389654	0.693821	0.339483
228	N	0.361776	0.7191	0.337262
229	C	0.308728	0.69512	0.337051
230	N	0.283798	0.641779	0.337863
231	C	0.281533	0.723838	0.335906
232	C	0.306505	0.779478	0.335709
233	C	0.276562	0.804992	0.334841
234	C	0.22122	0.777995	0.667518
235	C	0.19625	0.722359	0.667711
236	H	0.296551	0.844958	0.334761
237	C	0.226191	0.696841	0.66858
238	H	0.206204	0.656879	0.668656
239	N	0.141077	0.69151	0.666803
240	N	0.361678	0.810327	0.336617
241	O	0.124922	0.663409	0.632457
242	O	0.377835	0.838432	0.370964
243	O	0.379446	0.838682	0.302543
244	O	0.123306	0.663151	0.700875
245	C	0.28172	0.557643	0.33805
246	C	0.306165	0.526529	0.337946
247	C	0.27602	0.971452	0.334814
248	C	0.22104	0.944194	0.66533
249	C	0.196595	0.975308	0.66544
250	H	0.295606	0.951059	0.334964
251	C	0.226739	0.530385	0.668576
252	H	0.207153	0.550778	0.668429
253	N	0.141973	0.952714	0.662231
254	N	0.360787	0.549123	0.341159
255	O	0.129316	0.968767	0.628125
256	O	0.37344	0.53307	0.375265
257	O	0.379496	0.53978	0.30697
258	O	0.123266	0.962054	0.696424
259	C	0.445023	0.720837	0.33826
260	C	0.476366	0.698629	0.350182
261	C	0.031366	0.728736	0.346789
262	C	0.057733	0.781012	0.665207
263	H	0.052468	0.711891	0.357319
264	C	0.471392	0.773128	0.656708
265	H	0.450292	0.78995	0.646115
266	N	0.048529	0.853661	0.63439
267	N	0.454226	0.648164	0.369017
268	O	0.037892	0.851113	0.593502
269	O	0.464843	0.650662	0.409905
270	O	0.470964	0.621355	0.350132
271	O	0.031799	0.880494	0.653245
272	C	0.194101	0.888624	0.663901
273	N	0.141217	0.860792	0.662749
274	C	0.113101	0.808017	0.663944
275	N	0.140979	0.782737	0.666172
276	C	0.194027	0.806717	0.666365
277	N	0.218957	0.860054	0.665537
278	C	0.308658	0.613213	0.672831
279	N	0.361541	0.641045	0.673996
280	C	0.389654	0.693821	0.672814
281	N	0.361776	0.7191	0.670597
282	C	0.308728	0.69512	0.670383
283	N	0.283798	0.641779	0.671194
284	C	0.281533	0.723838	0.669237
285	C	0.306505	0.779478	0.669044
286	C	0.276562	0.804992	0.668172
287	C	0.22122	0.777995	0.000849
288	C	0.19625	0.722359	0.001047
289	H	0.296551	0.844958	0.668095
290	C	0.226191	0.696841	0.001913
291	H	0.206204	0.656879	0.001992
292	N	0.141077	0.69151	0.000134
293	N	0.361678	0.810327	0.669949
294	O	0.124922	0.663409	0.965788
295	O	0.377835	0.838432	0.704295
296	O	0.379446	0.838682	0.635876
297	O	0.123306	0.663151	0.034209
298	C	0.28172	0.557643	0.671381
299	C	0.306165	0.526529	0.671281
300	C	0.27602	0.971452	0.668149
301	C	0.22104	0.944194	0.998665
302	C	0.196595	0.975308	0.998772
303	H	0.295606	0.951059	0.668296
304	C	0.226739	0.530385	0.001908
305	H	0.207153	0.550778	0.001761
306	N	0.141973	0.952714	0.995563
307	N	0.360787	0.549123	0.674494
308	O	0.129316	0.968767	0.96146
309	O	0.37344	0.53307	0.7086
310	O	0.379496	0.53978	0.640304
311	O	0.123266	0.962054	0.029757
312	C	0.445023	0.720837	0.671592
313	C	0.476366	0.698629	0.683517
314	C	0.031366	0.728736	0.680124
315	C	0.057733	0.781012	0.998541
316	H	0.052468	0.711891	0.69065
317	C	0.471392	0.773128	0.990039
318	H	0.450292	0.78995	0.97945
319	N	0.048529	0.853661	0.967722
320	N	0.454226	0.648164	0.702351
321	O	0.037892	0.851113	0.926837
322	O	0.464843	0.650662	0.74324
323	O	0.470964	0.621355	0.683463
324	O	0.031799	0.880494	0.986579
325	C	0.694103	0.388624	0.997232
326	N	0.641219	0.360795	0.996084
327	C	0.613103	0.308016	0.997276
328	N	0.640981	0.282739	0.999506
329	C	0.694028	0.306718	0.9997
330	N	0.71896	0.360057	0.998872
331	C	0.808657	0.113214	0.006164
332	N	0.861541	0.141045	0.007329
333	C	0.889654	0.193823	0.006148
334	N	0.861776	0.219101	0.003929
335	C	0.808728	0.195119	0.003718
336	N	0.783799	0.141781	0.004529
337	C	0.781534	0.223839	0.002572
338	C	0.806504	0.279478	0.002376
339	C	0.776565	0.304994	0.001507
340	C	0.721222	0.277997	0.334183
341	C	0.696252	0.22236	0.33438
342	H	0.79655	0.344957	0.001428
343	C	0.726194	0.196843	0.335245
344	H	0.706206	0.15688	0.335325
345	N	0.641078	0.191511	0.33347
346	N	0.861677	0.310327	0.003284
347	O	0.624921	0.163408	0.299123
348	O	0.877836	0.338432	0.037629
349	O	0.879448	0.338681	0.969208
350	O	0.623307	0.163154	0.367541
351	C	0.78172	0.057643	0.004716
352	C	0.806166	0.02653	0.004614
353	C	0.776019	0.471451	0.001481
354	C	0.72104	0.444197	0.331997
355	C	0.696596	0.475307	0.332106
356	H	0.79561	0.451062	0.001631
357	C	0.72674	0.030387	0.335242
358	H	0.707154	0.050778	0.335095
359	N	0.641974	0.452713	0.328897
360	N	0.860789	0.049125	0.007827
361	O	0.629319	0.46877	0.294793
362	O	0.873441	0.033071	0.041933
363	O	0.879497	0.039782	0.973636
364	O	0.623266	0.462057	0.363089
365	C	0.945023	0.220839	0.004926
366	C	0.976366	0.198631	0.01685
367	C	0.531368	0.228737	0.013457
368	C	0.557733	0.281014	0.331874
369	C	0.526391	0.303216	0.319933
370	H	0.552469	0.21189	0.023984
371	C	0.971391	0.273128	0.323374
372	H	0.950291	0.28995	0.312783
373	N	0.548531	0.353662	0.301056
374	N	0.954225	0.148164	0.035684
375	O	0.53789	0.351111	0.260169
376	O	0.964845	0.150663	0.076573
377	O	0.970965	0.121357	0.016799
378	O	0.531801	0.380494	0.319912
379	C	0.694103	0.388624	0.330567
380	N	0.641219	0.360795	0.329416
381	C	0.613103	0.308016	0.33061
382	N	0.640981	0.282739	0.332839
383	C	0.694028	0.306718	0.333033
384	N	0.71896	0.360057	0.332205
385	C	0.808657	0.113214	0.339496
386	N	0.861541	0.141045	0.340661
387	C	0.889654	0.193823	0.339483
388	N	0.861776	0.219101	0.337262
389	C	0.808728	0.195119	0.337051
390	N	0.783799	0.141781	0.337863
391	C	0.781534	0.223839	0.335906
392	C	0.806504	0.279478	0.335709
393	C	0.776565	0.304994	0.334841
394	C	0.721222	0.277997	0.667518
395	C	0.696252	0.22236	0.667711
396	H	0.79655	0.344957	0.334761
397	C	0.726194	0.196843	0.66858
398	H	0.706206	0.15688	0.668656
399	N	0.641078	0.191511	0.666803
400	N	0.861677	0.310327	0.336617
401	O	0.624921	0.163408	0.632457
402	O	0.877836	0.338432	0.370964
403	O	0.879448	0.338681	0.302543
404	O	0.623307	0.163154	0.700875
405	C	0.78172	0.057643	0.33805
406	C	0.806166	0.02653	0.337946
407	C	0.776019	0.471451	0.334814
408	C	0.72104	0.444197	0.66533
409	C	0.696596	0.475307	0.66544
410	H	0.79561	0.451062	0.334964
411	C	0.72674	0.030387	0.668576
412	H	0.707154	0.050778	0.668429
413	N	0.641974	0.452713	0.662231
414	N	0.860789	0.049125	0.341159
415	O	0.629319	0.46877	0.628125
416	O	0.873441	0.033071	0.375265
417	O	0.879497	0.039782	0.30697
418	O	0.623266	0.462057	0.696424
419	C	0.945023	0.220839	0.33826
420	C	0.976366	0.198631	0.350182
421	C	0.531368	0.228737	0.346789
422	C	0.557733	0.281014	0.665207
423	C	0.526391	0.303216	0.653265
424	H	0.552469	0.21189	0.357319
425	C	0.971391	0.273128	0.656708
426	H	0.950291	0.28995	0.646115
427	N	0.548531	0.353662	0.63439
428	N	0.954225	0.148164	0.369017
429	O	0.53789	0.351111	0.593502
430	O	0.964845	0.150663	0.409905
431	O	0.970965	0.121357	0.350132
432	O	0.531801	0.380494	0.653245
433	C	0.694103	0.388624	0.663901
434	N	0.641219	0.360795	0.662749
435	C	0.613103	0.308016	0.663944
436	N	0.640981	0.282739	0.666172
437	C	0.694028	0.306718	0.666365
438	N	0.71896	0.360057	0.665537
439	C	0.808657	0.113214	0.672831
440	N	0.861541	0.141045	0.673996
441	C	0.889654	0.193823	0.672814
442	N	0.861776	0.219101	0.670597
443	C	0.808728	0.195119	0.670383
444	N	0.783799	0.141781	0.671194
445	C	0.781534	0.223839	0.669237
446	C	0.806504	0.279478	0.669044
447	C	0.776565	0.304994	0.668172
448	C	0.721222	0.277997	0.000849
449	C	0.696252	0.22236	0.001047
450	H	0.79655	0.344957	0.668095
451	C	0.726194	0.196843	0.001913
452	H	0.706206	0.15688	0.001992
453	N	0.641078	0.191511	0.000134
454	N	0.861677	0.310327	0.669949
455	O	0.624921	0.163408	0.965788
456	O	0.877836	0.338432	0.704295
457	O	0.879448	0.338681	0.635876
458	O	0.623307	0.163154	0.034209
459	C	0.78172	0.057643	0.671381
460	C	0.806166	0.02653	0.671281
461	C	0.776019	0.471451	0.668149
462	C	0.72104	0.444197	0.998665
463	C	0.696596	0.475307	0.998772
464	H	0.79561	0.451062	0.668296
465	C	0.72674	0.030387	0.001908
466	H	0.707154	0.050778	0.001761
467	N	0.641974	0.452713	0.995563
468	N	0.860789	0.049125	0.674494
469	O	0.629319	0.46877	0.96146
470	O	0.873441	0.033071	0.7086
471	O	0.879497	0.039782	0.640304
472	O	0.623266	0.462057	0.029757
473	C	0.945023	0.220839	0.671592
474	C	0.976366	0.198631	0.683517
475	C	0.531368	0.228737	0.680124
476	C	0.557733	0.281014	0.998541
477	C	0.526391	0.303216	0.986599
478	H	0.552469	0.21189	0.69065
479	C	0.971391	0.273128	0.990039
480	H	0.950291	0.28995	0.97945
481	N	0.548531	0.353662	0.967722
482	N	0.954225	0.148164	0.702351
483	O	0.53789	0.351111	0.926837
484	O	0.964845	0.150663	0.74324
485	O	0.970965	0.121357	0.683463
486	O	0.531801	0.380494	0.986579
487	C	0.694101	0.888624	0.997232
488	N	0.641217	0.860792	0.996084
489	C	0.613102	0.808017	0.997276
490	N	0.640979	0.782737	0.999506
491	C	0.694027	0.806717	0.9997
492	N	0.718958	0.860054	0.998872
493	C	0.808658	0.613213	0.006164
494	N	0.861543	0.641045	0.007329
495	C	0.889654	0.693821	0.006148
496	N	0.861777	0.7191	0.003929
497	C	0.80873	0.69512	0.003718
498	N	0.7838	0.641779	0.004529
499	C	0.781531	0.723838	0.002572
500	C	0.806506	0.779478	0.002376
501	C	0.776562	0.804992	0.001507
502	C	0.721221	0.777995	0.334183
503	C	0.69625	0.722359	0.33438
504	H	0.796552	0.844958	0.001428
505	C	0.726192	0.696841	0.335245
506	H	0.706204	0.656879	0.335325
507	N	0.641077	0.69151	0.33347
508	N	0.861679	0.810327	0.003284
509	O	0.624922	0.663409	0.299123
510	O	0.877834	0.838432	0.037629
511	O	0.879446	0.838682	0.969208
512	O	0.623307	0.663151	0.367541
513	C	0.781722	0.557643	0.004716
514	C	0.806164	0.526529	0.004614
515	C	0.77602	0.971452	0.001481
516	C	0.72104	0.944194	0.331997
517	C	0.696595	0.975308	0.332106
518	H	0.795607	0.951059	0.001631
519	C	0.726741	0.530385	0.335242
520	H	0.707153	0.550778	0.335095
521	N	0.641973	0.952714	0.328897
522	N	0.860787	0.549123	0.007827
523	O	0.629317	0.968767	0.294793
524	O	0.873439	0.53307	0.041933
525	O	0.879498	0.53978	0.973636
526	O	0.623265	0.962054	0.363089
527	C	0.945024	0.720837	0.004926
528	C	0.976367	0.698629	0.01685
529	C	0.531367	0.728736	0.013457
530	C	0.557733	0.781012	0.331874
531	C	0.52639	0.803216	0.319933
532	H	0.552469	0.711891	0.023984
533	C	0.971393	0.773128	0.323374
534	H	0.950293	0.78995	0.312783
535	N	0.548529	0.853661	0.301056
536	N	0.954227	0.648164	0.035684
537	O	0.537891	0.851113	0.260169
538	O	0.964842	0.650662	0.076573
539	O	0.970966	0.621355	0.016799
540	O	0.5318	0.880494	0.319912
541	C	0.694101	0.888624	0.330567
542	N	0.641217	0.860792	0.329416
543	C	0.613102	0.808017	0.33061
544	N	0.640979	0.782737	0.332839
545	C	0.694027	0.806717	0.333033
546	N	0.718958	0.860054	0.332205
547	C	0.808658	0.613213	0.339496
548	N	0.861543	0.641045	0.340661
549	C	0.889654	0.693821	0.339483
550	N	0.861777	0.7191	0.337262
551	C	0.80873	0.69512	0.337051
552	N	0.7838	0.641779	0.337863
553	C	0.781531	0.723838	0.335906
554	C	0.806506	0.779478	0.335709
555	C	0.776562	0.804992	0.334841
556	C	0.721221	0.777995	0.667518
557	C	0.69625	0.722359	0.667711
558	H	0.796552	0.844958	0.334761
559	C	0.726192	0.696841	0.66858
560	H	0.706204	0.656879	0.668656
561	N	0.641077	0.69151	0.666803
562	N	0.861679	0.810327	0.336617
563	O	0.624922	0.663409	0.632457
564	O	0.877834	0.838432	0.370964
565	O	0.879446	0.838682	0.302543
566	O	0.623307	0.663151	0.700875
567	C	0.781722	0.557643	0.33805
568	C	0.806164	0.526529	0.337946
569	C	0.77602	0.971452	0.334814
570	C	0.72104	0.944194	0.66533
571	C	0.696595	0.975308	0.66544
572	H	0.795607	0.951059	0.334964
573	C	0.726741	0.530385	0.668576
574	H	0.707153	0.550778	0.668429
575	N	0.641973	0.952714	0.662231
576	N	0.860787	0.549123	0.341159
577	O	0.629317	0.968767	0.628125
578	O	0.873439	0.53307	0.375265
579	O	0.879498	0.53978	0.30697
580	O	0.623265	0.962054	0.696424
581	C	0.945024	0.720837	0.33826
582	C	0.976367	0.698629	0.350182
583	C	0.531367	0.728736	0.346789
584	C	0.557733	0.781012	0.665207
585	C	0.52639	0.803216	0.653265
586	H	0.552469	0.711891	0.357319
587	C	0.971393	0.773128	0.656708
588	H	0.950293	0.78995	0.646115
589	N	0.548529	0.853661	0.63439
590	N	0.954227	0.648164	0.369017
591	O	0.537891	0.851113	0.593502
592	O	0.964842	0.650662	0.409905
593	O	0.970966	0.621355	0.350132
594	O	0.5318	0.880494	0.653245
595	C	0.694101	0.888624	0.663901
596	N	0.641217	0.860792	0.662749
597	C	0.613102	0.808017	0.663944
598	N	0.640979	0.782737	0.666172
599	C	0.694027	0.806717	0.666365
600	N	0.718958	0.860054	0.665537
601	C	0.808658	0.613213	0.672831
602	N	0.861543	0.641045	0.673996
603	C	0.889654	0.693821	0.672814
604	N	0.861777	0.7191	0.670597
605	C	0.80873	0.69512	0.670383
606	N	0.7838	0.641779	0.671194
607	C	0.781531	0.723838	0.669237
608	C	0.806506	0.779478	0.669044
609	C	0.776562	0.804992	0.668172
610	C	0.721221	0.777995	0.000849
611	C	0.69625	0.722359	0.001047
612	H	0.796552	0.844958	0.668095
613	C	0.726192	0.696841	0.001913
614	H	0.706204	0.656879	0.001992
615	N	0.641077	0.69151	0.000134
616	N	0.861679	0.810327	0.669949
617	O	0.624922	0.663409	0.965788
618	O	0.877834	0.838432	0.704295
619	O	0.879446	0.838682	0.635876
620	O	0.623307	0.663151	0.034209
621	C	0.781722	0.557643	0.671381
622	C	0.806164	0.526529	0.671281
623	C	0.77602	0.971452	0.668149
624	C	0.72104	0.944194	0.998665
625	C	0.696595	0.975308	0.998772
626	H	0.795607	0.951059	0.668296
627	C	0.726741	0.530385	0.001908
628	H	0.707153	0.550778	0.001761
629	N	0.641973	0.952714	0.995563
630	N	0.860787	0.549123	0.674494
631	O	0.629317	0.968767	0.96146
632	O	0.873439	0.53307	0.7086
633	O	0.879498	0.53978	0.640304
634	O	0.623265	0.962054	0.029757
635	C	0.945024	0.720837	0.671592
636	C	0.976367	0.698629	0.683517
637	C	0.531367	0.728736	0.680124
638	C	0.557733	0.781012	0.998541
639	C	0.52639	0.803216	0.986599
640	H	0.552469	0.711891	0.69065
641	C	0.971393	0.773128	0.990039
642	H	0.950293	0.78995	0.97945
643	N	0.548529	0.853661	0.967722
644	N	0.954227	0.648164	0.702351
645	O	0.537891	0.851113	0.926837
646	O	0.964842	0.650662	0.74324
647	O	0.970966	0.621355	0.683463
648	O	0.5318	0.880494	0.986579
