data_C360H72N144_2018-02-15_10:40:04
#******************************************
#
# CIF file created by Zeo++
# Zeo++ is an open source package to
# analyze microporous materials
#
#*******************************************

_cell_length_a		29.2584   
_cell_length_b		29.2584   
_cell_length_c		29.497   
_cell_angle_alpha		90   
_cell_angle_beta		90   
_cell_angle_gamma		120   

_symmetry_space_group_name_H-M		'P1'
_symmetry_Int_Tables_number		1
_symmetry_cell_setting		Monoclinic

loop_
_symmetry_equiv_pos_as_xyz
'+x,+y,+z'

loop_
_atom_site_label
_atom_site_type_symbol
_atom_site_fract_x
_atom_site_fract_y
_atom_site_fract_z
1	C	0.123475	0.313868	0.007208
2	C	0.151678	0.36964	0.007513
3	C	0.151675	0.286296	0.007357
4	H	0.131449	0.245844	0.00814
5	H	0.131453	0.389865	0.008337
6	C	0.067968	0.286105	0.009411
7	N	0.040519	0.272308	0.303127
8	C	0.038617	0.271525	0.050316
9	C	0.059986	0.282225	0.090426
10	N	0.079103	0.291779	0.125722
11	C	0.123475	0.313868	0.340543
12	C	0.151678	0.36964	0.340848
13	C	0.151675	0.286296	0.340692
14	H	0.131449	0.245844	0.341472
15	H	0.131453	0.389865	0.341672
16	C	0.067968	0.286105	0.342744
17	N	0.040519	0.272308	0.636458
18	C	0.038617	0.271525	0.383649
19	C	0.059986	0.282225	0.423759
20	N	0.079103	0.291779	0.459054
21	C	0.123475	0.313868	0.673876
22	C	0.151678	0.36964	0.674181
23	C	0.151675	0.286296	0.674025
24	H	0.131449	0.245844	0.674808
25	H	0.131453	0.389865	0.675005
26	C	0.067968	0.286105	0.676076
27	N	0.040519	0.272308	0.969794
28	C	0.038617	0.271525	0.716982
29	C	0.059986	0.282225	0.757091
30	N	0.079103	0.291779	0.79239
31	C	0.123474	0.813867	0.007208
32	C	0.151678	0.86964	0.007513
33	C	0.151675	0.786296	0.007357
34	H	0.131449	0.745844	0.00814
35	H	0.131453	0.889866	0.008337
36	C	0.067968	0.786107	0.009411
37	N	0.040521	0.77231	0.303127
38	C	0.038617	0.771524	0.050316
39	C	0.059985	0.782223	0.090426
40	N	0.079102	0.791778	0.125722
41	C	0.123474	0.813867	0.340543
42	C	0.151678	0.86964	0.340848
43	C	0.151675	0.786296	0.340692
44	H	0.131449	0.745844	0.341472
45	H	0.131453	0.889866	0.341672
46	C	0.067968	0.786107	0.342744
47	N	0.040521	0.77231	0.636458
48	C	0.038617	0.771524	0.383649
49	C	0.059985	0.782223	0.423759
50	N	0.079102	0.791778	0.459054
51	C	0.123474	0.813867	0.673876
52	C	0.151678	0.86964	0.674181
53	C	0.151675	0.786296	0.674025
54	H	0.131449	0.745844	0.674808
55	H	0.131453	0.889866	0.675005
56	C	0.067968	0.786107	0.676076
57	N	0.040521	0.77231	0.969794
58	C	0.038617	0.771524	0.716982
59	C	0.059985	0.782223	0.757091
60	N	0.079102	0.791778	0.79239
61	C	0.207449	0.397841	0.007232
62	C	0.207448	0.313865	0.007144
63	C	0.207449	0.397841	0.340564
64	C	0.207448	0.313865	0.340475
65	C	0.207449	0.397841	0.673896
66	C	0.207448	0.313865	0.673811
67	C	0.20745	0.897842	0.007232
68	C	0.207449	0.813867	0.007144
69	C	0.20745	0.897842	0.340564
70	C	0.207449	0.813867	0.340475
71	C	0.20745	0.897842	0.673896
72	C	0.207449	0.813867	0.673811
73	C	0.235018	0.369638	0.007418
74	H	0.250111	0.127191	0.009334
75	C	0.235195	0.286107	0.009368
76	N	0.248883	0.272327	0.303095
77	C	0.24992	0.271503	0.050285
78	C	0.239241	0.28221	0.090388
79	N	0.229682	0.291777	0.125681
80	C	0.235212	0.453349	0.009424
81	N	0.249006	0.480789	0.303135
82	C	0.249799	0.482711	0.050323
83	C	0.239093	0.461349	0.090436
84	N	0.229529	0.442231	0.125733
85	C	0.235018	0.369638	0.340753
86	H	0.250111	0.127191	0.342666
87	C	0.235195	0.286107	0.342699
88	N	0.248883	0.272327	0.636428
89	C	0.24992	0.271503	0.383619
90	C	0.239241	0.28221	0.423721
91	N	0.229682	0.291777	0.459013
92	C	0.235212	0.453349	0.342757
93	N	0.249006	0.480789	0.636468
94	C	0.249799	0.482711	0.383656
95	C	0.239093	0.461349	0.423769
96	N	0.229529	0.442231	0.459067
97	C	0.235018	0.369638	0.674086
98	H	0.250111	0.127191	0.676001
99	C	0.235195	0.286107	0.676035
100	N	0.248883	0.272327	0.96976
101	C	0.24992	0.271503	0.716951
102	C	0.239241	0.28221	0.757054
103	N	0.229682	0.291777	0.792349
104	C	0.235212	0.453349	0.676089
105	N	0.249006	0.480789	0.969801
106	C	0.249799	0.482711	0.716989
107	C	0.239093	0.461349	0.757101
108	N	0.229529	0.442231	0.7924
109	C	0.235017	0.869636	0.007418
110	H	0.25011	0.627191	0.009334
111	C	0.235194	0.786107	0.009368
112	N	0.248884	0.772329	0.303095
113	C	0.24992	0.771505	0.050285
114	C	0.239241	0.782212	0.090388
115	N	0.229682	0.791778	0.125681
116	C	0.235213	0.95335	0.009424
117	N	0.249007	0.98079	0.303135
118	C	0.249797	0.982708	0.050323
119	C	0.239091	0.961346	0.090436
120	N	0.229529	0.942233	0.125733
121	C	0.235017	0.869636	0.340753
122	H	0.25011	0.627191	0.342666
123	C	0.235194	0.786107	0.342699
124	N	0.248884	0.772329	0.636428
125	C	0.24992	0.771505	0.383619
126	C	0.239241	0.782212	0.423721
127	N	0.229682	0.791778	0.459013
128	C	0.235213	0.95335	0.342757
129	N	0.249007	0.98079	0.636468
130	C	0.249797	0.982708	0.383656
131	C	0.239091	0.961346	0.423769
132	N	0.229529	0.942233	0.459067
133	C	0.235017	0.869636	0.674086
134	H	0.25011	0.627191	0.676001
135	C	0.235194	0.786107	0.676035
136	N	0.248884	0.772329	0.96976
137	C	0.24992	0.771505	0.716951
138	C	0.239241	0.782212	0.757054
139	N	0.229682	0.791778	0.792349
140	C	0.235213	0.95335	0.676089
141	N	0.249007	0.98079	0.969801
142	C	0.249797	0.982708	0.716989
143	C	0.239091	0.961346	0.757101
144	N	0.229529	0.942233	0.7924
145	H	0.275471	0.389862	0.008201
146	C	0.402108	0.203189	0.010358
147	C	0.373903	0.147417	0.010057
148	C	0.31813	0.11921	0.010341
149	C	0.290562	0.147415	0.010139
150	C	0.318132	0.203187	0.01038
151	C	0.373904	0.230758	0.010176
152	H	0.394129	0.27121	0.009383
153	H	0.394129	0.127192	0.009243
154	C	0.275662	0.245551	0.300571
155	C	0.290386	0.230945	0.008154
156	N	0.276696	0.244724	0.047761
157	C	0.286339	0.234841	0.260468
158	N	0.295897	0.225273	0.225176
159	C	0.275784	0.034343	0.300579
160	C	0.29037	0.063703	0.008144
161	N	0.276576	0.036264	0.047768
162	C	0.28649	0.055706	0.260467
163	N	0.296054	0.074823	0.225171
164	C	0.486966	0.245532	0.300581
165	C	0.457613	0.230951	0.008151
166	N	0.485063	0.244747	0.04777
167	C	0.465596	0.234831	0.260472
168	N	0.446476	0.225276	0.225176
169	H	0.275471	0.389862	0.341537
170	C	0.402108	0.203189	0.343689
171	C	0.373903	0.147417	0.343391
172	C	0.31813	0.11921	0.343676
173	C	0.290562	0.147415	0.343472
174	C	0.318132	0.203187	0.343713
175	C	0.373904	0.230758	0.34351
176	H	0.394129	0.27121	0.342716
177	H	0.394129	0.127192	0.342577
178	C	0.275662	0.245551	0.633906
179	C	0.290386	0.230945	0.341489
180	N	0.276696	0.244724	0.381093
181	C	0.286339	0.234841	0.593803
182	N	0.295897	0.225273	0.558508
183	C	0.275784	0.034343	0.633912
184	C	0.29037	0.063703	0.341479
185	N	0.276576	0.036264	0.3811
186	C	0.28649	0.055706	0.5938
187	N	0.296054	0.074823	0.558505
188	C	0.486966	0.245532	0.633912
189	C	0.457613	0.230951	0.341486
190	N	0.485063	0.244747	0.381103
191	C	0.465596	0.234831	0.593803
192	N	0.446476	0.225276	0.558508
193	H	0.275471	0.389862	0.674869
194	C	0.402108	0.203189	0.677025
195	C	0.373903	0.147417	0.676723
196	C	0.31813	0.11921	0.677008
197	C	0.290562	0.147415	0.676805
198	C	0.318132	0.203187	0.677046
199	C	0.373904	0.230758	0.676842
200	H	0.394129	0.27121	0.676049
201	H	0.394129	0.127192	0.67591
202	C	0.275662	0.245551	0.967238
203	C	0.290386	0.230945	0.674822
204	N	0.276696	0.244724	0.714429
205	C	0.286339	0.234841	0.927135
206	N	0.295897	0.225273	0.89184
207	C	0.275784	0.034343	0.967245
208	C	0.29037	0.063703	0.674811
209	N	0.276576	0.036264	0.714432
210	C	0.28649	0.055706	0.927132
211	N	0.296054	0.074823	0.891837
212	C	0.486966	0.245532	0.967248
213	C	0.457613	0.230951	0.674818
214	N	0.485063	0.244747	0.714436
215	C	0.465596	0.234831	0.927139
216	N	0.446476	0.225276	0.891844
217	H	0.27547	0.889862	0.008201
218	C	0.402108	0.70319	0.010358
219	C	0.373902	0.647417	0.010057
220	C	0.31813	0.619211	0.010341
221	C	0.290561	0.647413	0.010139
222	C	0.318131	0.703186	0.01038
223	C	0.373903	0.730756	0.010176
224	H	0.394128	0.771209	0.009383
225	H	0.394128	0.627191	0.009243
226	C	0.275663	0.745552	0.300571
227	C	0.290385	0.730946	0.008154
228	N	0.276695	0.744723	0.047761
229	C	0.286339	0.734841	0.260468
230	N	0.295898	0.725275	0.225176
231	C	0.275785	0.534344	0.300579
232	C	0.290369	0.563703	0.008144
233	N	0.276575	0.536262	0.047768
234	C	0.28649	0.555707	0.260467
235	N	0.296054	0.574824	0.225171
236	C	0.486965	0.745532	0.300581
237	C	0.457614	0.73095	0.008151
238	N	0.485062	0.744747	0.04777
239	C	0.465596	0.734833	0.260472
240	N	0.446475	0.725275	0.225176
241	H	0.27547	0.889862	0.341537
242	C	0.402108	0.70319	0.343689
243	C	0.373902	0.647417	0.343391
244	C	0.31813	0.619211	0.343676
245	C	0.290561	0.647413	0.343472
246	C	0.318131	0.703186	0.343713
247	C	0.373903	0.730756	0.34351
248	H	0.394128	0.771209	0.342716
249	H	0.394128	0.627191	0.342577
250	C	0.275663	0.745552	0.633906
251	C	0.290385	0.730946	0.341489
252	N	0.276695	0.744723	0.381093
253	C	0.286339	0.734841	0.593803
254	N	0.295898	0.725275	0.558508
255	C	0.275785	0.534344	0.633912
256	C	0.290369	0.563703	0.341479
257	N	0.276575	0.536262	0.3811
258	C	0.28649	0.555707	0.5938
259	N	0.296054	0.574824	0.558505
260	C	0.486965	0.745532	0.633912
261	C	0.457614	0.73095	0.341486
262	N	0.485062	0.744747	0.381103
263	C	0.465596	0.734833	0.593803
264	N	0.446475	0.725275	0.558508
265	H	0.27547	0.889862	0.674869
266	C	0.402108	0.70319	0.677025
267	C	0.373902	0.647417	0.676723
268	C	0.31813	0.619211	0.677008
269	C	0.290561	0.647413	0.676805
270	C	0.318131	0.703186	0.677046
271	C	0.373903	0.730756	0.676842
272	H	0.394128	0.771209	0.676049
273	H	0.394128	0.627191	0.67591
274	C	0.275663	0.745552	0.967238
275	C	0.290385	0.730946	0.674822
276	N	0.276695	0.744723	0.714429
277	C	0.286339	0.734841	0.927135
278	N	0.295898	0.725275	0.89184
279	C	0.275785	0.534344	0.967245
280	C	0.290369	0.563703	0.674811
281	N	0.276575	0.536262	0.714432
282	C	0.28649	0.555707	0.927132
283	N	0.296054	0.574824	0.891837
284	C	0.486965	0.745532	0.967248
285	C	0.457614	0.73095	0.674818
286	N	0.485062	0.744747	0.714436
287	C	0.465596	0.734833	0.927139
288	N	0.446475	0.725275	0.891844
289	C	0.623477	0.313868	0.007208
290	C	0.651677	0.36964	0.007513
291	C	0.707451	0.397841	0.007232
292	C	0.73502	0.369638	0.007418
293	C	0.707448	0.313865	0.007144
294	C	0.651675	0.286296	0.007357
295	H	0.775472	0.389862	0.008201
296	H	0.631449	0.245844	0.00814
297	H	0.631453	0.389865	0.008337
298	C	0.90211	0.203189	0.010358
299	C	0.873903	0.147417	0.010057
300	C	0.818129	0.11921	0.010341
301	C	0.790561	0.147415	0.010139
302	C	0.818133	0.203187	0.01038
303	C	0.873906	0.230758	0.010176
304	H	0.750113	0.127191	0.009334
305	H	0.894129	0.27121	0.009383
306	H	0.89413	0.127192	0.009243
307	C	0.735194	0.286107	0.009368
308	N	0.748883	0.272327	0.303095
309	C	0.775661	0.245551	0.300571
310	C	0.790387	0.230945	0.008154
311	N	0.776697	0.244724	0.047761
312	C	0.74992	0.271503	0.050285
313	C	0.739241	0.28221	0.090388
314	C	0.786339	0.234841	0.260468
315	N	0.795897	0.225273	0.225176
316	N	0.729683	0.291777	0.125681
317	C	0.735212	0.453349	0.009424
318	N	0.749008	0.480789	0.303135
319	C	0.775784	0.034343	0.300579
320	C	0.790372	0.063703	0.008144
321	N	0.776577	0.036264	0.047768
322	C	0.749801	0.482711	0.050323
323	C	0.739092	0.461349	0.090436
324	C	0.78649	0.055706	0.260467
325	N	0.796055	0.074823	0.225171
326	N	0.72953	0.442231	0.125733
327	C	0.567966	0.286105	0.009411
328	N	0.54052	0.272308	0.303127
329	C	0.986966	0.245532	0.300581
330	C	0.957617	0.230951	0.008151
331	N	0.985063	0.244747	0.04777
332	C	0.538618	0.271525	0.050316
333	C	0.559987	0.282225	0.090426
334	C	0.965596	0.234831	0.260472
335	N	0.946477	0.225276	0.225176
336	N	0.579102	0.291779	0.125722
337	C	0.623477	0.313868	0.340543
338	C	0.651677	0.36964	0.340848
339	C	0.707451	0.397841	0.340564
340	C	0.73502	0.369638	0.340753
341	C	0.707448	0.313865	0.340475
342	C	0.651675	0.286296	0.340692
343	H	0.775472	0.389862	0.341537
344	H	0.631449	0.245844	0.341472
345	H	0.631453	0.389865	0.341672
346	C	0.90211	0.203189	0.343689
347	C	0.873903	0.147417	0.343391
348	C	0.818129	0.11921	0.343676
349	C	0.790561	0.147415	0.343472
350	C	0.818133	0.203187	0.343713
351	C	0.873906	0.230758	0.34351
352	H	0.750113	0.127191	0.342666
353	H	0.894129	0.27121	0.342716
354	H	0.89413	0.127192	0.342577
355	C	0.735194	0.286107	0.342699
356	N	0.748883	0.272327	0.636428
357	C	0.775661	0.245551	0.633906
358	C	0.790387	0.230945	0.341489
359	N	0.776697	0.244724	0.381093
360	C	0.74992	0.271503	0.383619
361	C	0.739241	0.28221	0.423721
362	C	0.786339	0.234841	0.593803
363	N	0.795897	0.225273	0.558508
364	N	0.729683	0.291777	0.459013
365	C	0.735212	0.453349	0.342757
366	N	0.749008	0.480789	0.636468
367	C	0.775784	0.034343	0.633912
368	C	0.790372	0.063703	0.341479
369	N	0.776577	0.036264	0.3811
370	C	0.749801	0.482711	0.383656
371	C	0.739092	0.461349	0.423769
372	C	0.78649	0.055706	0.5938
373	N	0.796055	0.074823	0.558505
374	N	0.72953	0.442231	0.459067
375	C	0.567966	0.286105	0.342744
376	N	0.54052	0.272308	0.636458
377	C	0.986966	0.245532	0.633912
378	C	0.957617	0.230951	0.341486
379	N	0.985063	0.244747	0.381103
380	C	0.538618	0.271525	0.383649
381	C	0.559987	0.282225	0.423759
382	C	0.965596	0.234831	0.593803
383	N	0.946477	0.225276	0.558508
384	N	0.579102	0.291779	0.459054
385	C	0.623477	0.313868	0.673876
386	C	0.651677	0.36964	0.674181
387	C	0.707451	0.397841	0.673896
388	C	0.73502	0.369638	0.674086
389	C	0.707448	0.313865	0.673811
390	C	0.651675	0.286296	0.674025
391	H	0.775472	0.389862	0.674869
392	H	0.631449	0.245844	0.674808
393	H	0.631453	0.389865	0.675005
394	C	0.90211	0.203189	0.677025
395	C	0.873903	0.147417	0.676723
396	C	0.818129	0.11921	0.677008
397	C	0.790561	0.147415	0.676805
398	C	0.818133	0.203187	0.677046
399	C	0.873906	0.230758	0.676842
400	H	0.750113	0.127191	0.676001
401	H	0.894129	0.27121	0.676049
402	H	0.89413	0.127192	0.67591
403	C	0.735194	0.286107	0.676035
404	N	0.748883	0.272327	0.96976
405	C	0.775661	0.245551	0.967238
406	C	0.790387	0.230945	0.674822
407	N	0.776697	0.244724	0.714429
408	C	0.74992	0.271503	0.716951
409	C	0.739241	0.28221	0.757054
410	C	0.786339	0.234841	0.927135
411	N	0.795897	0.225273	0.89184
412	N	0.729683	0.291777	0.792349
413	C	0.735212	0.453349	0.676089
414	N	0.749008	0.480789	0.969801
415	C	0.775784	0.034343	0.967245
416	C	0.790372	0.063703	0.674811
417	N	0.776577	0.036264	0.714432
418	C	0.749801	0.482711	0.716989
419	C	0.739092	0.461349	0.757101
420	C	0.78649	0.055706	0.927132
421	N	0.796055	0.074823	0.891837
422	N	0.72953	0.442231	0.7924
423	C	0.567966	0.286105	0.676076
424	N	0.54052	0.272308	0.969794
425	C	0.986966	0.245532	0.967248
426	C	0.957617	0.230951	0.674818
427	N	0.985063	0.244747	0.714436
428	C	0.538618	0.271525	0.716982
429	C	0.559987	0.282225	0.757091
430	C	0.965596	0.234831	0.927139
431	N	0.946477	0.225276	0.891844
432	N	0.579102	0.291779	0.79239
433	C	0.623475	0.813867	0.007208
434	C	0.651678	0.86964	0.007513
435	C	0.70745	0.897842	0.007232
436	C	0.735018	0.869636	0.007418
437	C	0.70745	0.813867	0.007144
438	C	0.651676	0.786296	0.007357
439	H	0.775471	0.889862	0.008201
440	H	0.631449	0.745844	0.00814
441	H	0.631453	0.889866	0.008337
442	C	0.90211	0.70319	0.010358
443	C	0.873903	0.647417	0.010057
444	C	0.818129	0.619211	0.010341
445	C	0.79056	0.647413	0.010139
446	C	0.818132	0.703186	0.01038
447	C	0.873902	0.730756	0.010176
448	H	0.750109	0.627191	0.009334
449	H	0.894128	0.771209	0.009383
450	H	0.89413	0.627191	0.009243
451	C	0.735194	0.786107	0.009368
452	N	0.748884	0.772329	0.303095
453	C	0.775662	0.745552	0.300571
454	C	0.790387	0.730946	0.008154
455	N	0.776697	0.744723	0.047761
456	C	0.749921	0.771505	0.050285
457	C	0.739242	0.782212	0.090388
458	C	0.78634	0.734841	0.260468
459	N	0.795897	0.725275	0.225176
460	N	0.729683	0.791778	0.125681
461	C	0.735213	0.95335	0.009424
462	N	0.749007	0.98079	0.303135
463	C	0.775785	0.534344	0.300579
464	C	0.790368	0.563703	0.008144
465	N	0.776576	0.536262	0.047768
466	C	0.749798	0.982708	0.050323
467	C	0.739092	0.961346	0.090436
468	C	0.78649	0.555707	0.260467
469	N	0.796056	0.574824	0.225171
470	N	0.72953	0.942233	0.125733
471	C	0.567969	0.786107	0.009411
472	N	0.54052	0.77231	0.303127
473	C	0.986966	0.745532	0.300581
474	C	0.957616	0.73095	0.008151
475	N	0.985062	0.744747	0.04777
476	C	0.538616	0.771524	0.050316
477	C	0.559985	0.782223	0.090426
478	C	0.965597	0.734833	0.260472
479	N	0.946476	0.725275	0.225176
480	N	0.579102	0.791778	0.125722
481	C	0.623475	0.813867	0.340543
482	C	0.651678	0.86964	0.340848
483	C	0.70745	0.897842	0.340564
484	C	0.735018	0.869636	0.340753
485	C	0.70745	0.813867	0.340475
486	C	0.651676	0.786296	0.340692
487	H	0.775471	0.889862	0.341537
488	H	0.631449	0.745844	0.341472
489	H	0.631453	0.889866	0.341672
490	C	0.90211	0.70319	0.343689
491	C	0.873903	0.647417	0.343391
492	C	0.818129	0.619211	0.343676
493	C	0.79056	0.647413	0.343472
494	C	0.818132	0.703186	0.343713
495	C	0.873902	0.730756	0.34351
496	H	0.750109	0.627191	0.342666
497	H	0.894128	0.771209	0.342716
498	H	0.89413	0.627191	0.342577
499	C	0.735194	0.786107	0.342699
500	N	0.748884	0.772329	0.636428
501	C	0.775662	0.745552	0.633906
502	C	0.790387	0.730946	0.341489
503	N	0.776697	0.744723	0.381093
504	C	0.749921	0.771505	0.383619
505	C	0.739242	0.782212	0.423721
506	C	0.78634	0.734841	0.593803
507	N	0.795897	0.725275	0.558508
508	N	0.729683	0.791778	0.459013
509	C	0.735213	0.95335	0.342757
510	N	0.749007	0.98079	0.636468
511	C	0.775785	0.534344	0.633912
512	C	0.790368	0.563703	0.341479
513	N	0.776576	0.536262	0.3811
514	C	0.749798	0.982708	0.383656
515	C	0.739092	0.961346	0.423769
516	C	0.78649	0.555707	0.5938
517	N	0.796056	0.574824	0.558505
518	N	0.72953	0.942233	0.459067
519	C	0.567969	0.786107	0.342744
520	N	0.54052	0.77231	0.636458
521	C	0.986966	0.745532	0.633912
522	C	0.957616	0.73095	0.341486
523	N	0.985062	0.744747	0.381103
524	C	0.538616	0.771524	0.383649
525	C	0.559985	0.782223	0.423759
526	C	0.965597	0.734833	0.593803
527	N	0.946476	0.725275	0.558508
528	N	0.579102	0.791778	0.459054
529	C	0.623475	0.813867	0.673876
530	C	0.651678	0.86964	0.674181
531	C	0.70745	0.897842	0.673896
532	C	0.735018	0.869636	0.674086
533	C	0.70745	0.813867	0.673811
534	C	0.651676	0.786296	0.674025
535	H	0.775471	0.889862	0.674869
536	H	0.631449	0.745844	0.674808
537	H	0.631453	0.889866	0.675005
538	C	0.90211	0.70319	0.677025
539	C	0.873903	0.647417	0.676723
540	C	0.818129	0.619211	0.677008
541	C	0.79056	0.647413	0.676805
542	C	0.818132	0.703186	0.677046
543	C	0.873902	0.730756	0.676842
544	H	0.750109	0.627191	0.676001
545	H	0.894128	0.771209	0.676049
546	H	0.89413	0.627191	0.67591
547	C	0.735194	0.786107	0.676035
548	N	0.748884	0.772329	0.96976
549	C	0.775662	0.745552	0.967238
550	C	0.790387	0.730946	0.674822
551	N	0.776697	0.744723	0.714429
552	C	0.749921	0.771505	0.716951
553	C	0.739242	0.782212	0.757054
554	C	0.78634	0.734841	0.927135
555	N	0.795897	0.725275	0.89184
556	N	0.729683	0.791778	0.792349
557	C	0.735213	0.95335	0.676089
558	N	0.749007	0.98079	0.969801
559	C	0.775785	0.534344	0.967245
560	C	0.790368	0.563703	0.674811
561	N	0.776576	0.536262	0.714432
562	C	0.749798	0.982708	0.716989
563	C	0.739092	0.961346	0.757101
564	C	0.78649	0.555707	0.927132
565	N	0.796056	0.574824	0.891837
566	N	0.72953	0.942233	0.7924
567	C	0.567969	0.786107	0.676076
568	N	0.54052	0.77231	0.969794
569	C	0.986966	0.745532	0.967248
570	C	0.957616	0.73095	0.674818
571	N	0.985062	0.744747	0.714436
572	C	0.538616	0.771524	0.716982
573	C	0.559985	0.782223	0.757091
574	C	0.965597	0.734833	0.927139
575	N	0.946476	0.725275	0.891844
576	N	0.579102	0.791778	0.79239
