data_C180H114N24_2018-02-15_10:48:12
#******************************************
#
# CIF file created by Zeo++
# Zeo++ is an open source package to
# analyze microporous materials
#
#*******************************************

_cell_length_a		25.7248   
_cell_length_b		25.7226   
_cell_length_c		29.4418   
_cell_angle_alpha		90   
_cell_angle_beta		90   
_cell_angle_gamma		90.0299   

_symmetry_space_group_name_H-M		'P1'
_symmetry_Int_Tables_number		1
_symmetry_cell_setting		Monoclinic

loop_
_symmetry_equiv_pos_as_xyz
'+x,+y,+z'

loop_
_atom_site_label
_atom_site_type_symbol
_atom_site_fract_x
_atom_site_fract_y
_atom_site_fract_z
1	C	0.106261	0.144886	0.02018
2	C	0.144421	0.107179	0.019215
3	C	0.120384	0.058442	0.019088
4	N	0.068581	0.068601	0.019533
5	C	0.057806	0.12028	0.020048
6	C	0.008954	0.146436	0.020589
7	C	0.959871	0.12094	0.020626
8	N	0.950033	0.069245	0.020366
9	C	0.898462	0.058786	0.020497
10	C	0.873597	0.107049	0.020996
11	C	0.91132	0.145231	0.020704
12	C	0.873555	0.009395	0.020488
13	C	0.90029	0.960865	0.020018
14	N	0.952091	0.95073	0.019576
15	C	0.962855	0.899056	0.018873
16	C	0.914418	0.874424	0.01912
17	C	0.876249	0.912134	0.019488
18	C	0.011699	0.872912	0.018317
19	C	0.060791	0.89838	0.018443
20	N	0.070632	0.950073	0.018672
21	C	0.122199	0.960523	0.018309
22	C	0.147064	0.912255	0.018114
23	C	0.109333	0.874082	0.017842
24	C	0.147109	0.009906	0.01833
25	C	0.202767	0.010613	0.017486
26	C	0.230234	0.000644	0.310153
27	C	0.285015	0.000737	0.309526
28	C	0.31396	0.010803	0.016005
29	C	0.286298	0.021253	0.056599
30	C	0.231534	0.020924	0.057379
31	C	0.011548	0.817253	0.017487
32	C	0.000963	0.789899	0.310213
33	C	0.000814	0.735111	0.309522
34	C	0.011273	0.70607	0.015866
35	C	0.022294	0.733634	0.056403
36	C	0.022202	0.788395	0.057253
37	C	0.817892	0.008617	0.020816
38	C	0.790159	0.997448	0.061107
39	C	0.735375	0.997211	0.061392
40	C	0.706692	0.008193	0.02162
41	C	0.734624	0.019609	0.314697
42	C	0.789384	0.019584	0.31425
43	C	0.009045	0.202115	0.020964
44	C	0.998428	0.229971	0.061303
45	C	0.019774	0.230515	0.314282
46	C	0.020062	0.285286	0.314651
47	C	0.00915	0.313327	0.021615
48	C	0.998449	0.284761	0.061512
49	H	0.990595	0.303782	0.091289
50	H	0.990577	0.210487	0.090843
51	H	0.028592	0.304356	0.285142
52	H	0.027763	0.211424	0.284576
53	H	0.113517	0.183955	0.020728
54	H	0.183402	0.114889	0.018813
55	H	0.042348	0.042058	0.019366
56	H	0.97832	0.977275	0.019696
57	H	0.903838	0.184256	0.020749
58	H	0.834495	0.114068	0.021411
59	H	0.809727	0.989533	0.090588
60	H	0.716435	0.989066	0.091152
61	H	0.808389	0.028079	0.284605
62	H	0.715475	0.028425	0.285294
63	H	0.837267	0.904425	0.019383
64	H	0.907179	0.83535	0.018913
65	H	0.186172	0.905241	0.017959
66	H	0.1168	0.835058	0.017329
67	H	0.993234	0.809742	0.280836
68	H	0.992929	0.716447	0.279577
69	H	0.030247	0.807133	0.087123
70	H	0.030759	0.714215	0.085749
71	H	0.212725	0.028394	0.087323
72	H	0.305651	0.029353	0.086061
73	H	0.303748	0.993195	0.27955
74	H	0.210471	0.993047	0.280703
75	N	0.010888	0.654233	0.012231
76	N	0.65484	0.008139	0.024985
77	N	0.009103	0.365192	0.024871
78	N	0.365802	0.010448	0.012449
79	C	0.01288	0.493592	0.306447
80	C	0.012988	0.547	0.317128
81	C	0.011969	0.564277	0.029464
82	C	0.010683	0.525735	0.06385
83	C	0.010531	0.472335	0.053169
84	C	0.011709	0.455046	0.340839
85	H	0.010009	0.536181	0.097423
86	H	0.014138	0.573184	0.29097
87	H	0.013866	0.483131	0.272884
88	H	0.009848	0.446163	0.079348
89	C	0.012361	0.402377	0.328997
90	H	0.015312	0.39319	0.296313
91	C	0.01278	0.616912	0.041398
92	H	0.014547	0.625974	0.074176
93	C	0.526405	0.012249	0.306664
94	C	0.473009	0.012409	0.317361
95	C	0.455745	0.011327	0.029701
96	C	0.494298	0.009917	0.064072
97	C	0.547694	0.009723	0.053374
98	C	0.564962	0.010962	0.341039
99	H	0.483861	0.009189	0.097646
100	H	0.446821	0.013641	0.291211
101	H	0.53685	0.013293	0.273098
102	H	0.573875	0.008951	0.07954
103	C	0.61762	0.011595	0.329167
104	H	0.626768	0.014729	0.296487
105	C	0.403107	0.012145	0.041636
106	H	0.394035	0.013701	0.074419
107	C	0.106261	0.144886	0.353515
108	C	0.144421	0.107179	0.352547
109	C	0.120384	0.058442	0.352421
110	N	0.068581	0.068601	0.352866
111	C	0.057806	0.12028	0.353382
112	C	0.008954	0.146436	0.353922
113	C	0.959871	0.12094	0.353959
114	N	0.950033	0.069245	0.353698
115	C	0.898462	0.058786	0.35383
116	C	0.873597	0.107049	0.35433
117	C	0.91132	0.145231	0.354038
118	C	0.873555	0.009395	0.35382
119	C	0.90029	0.960865	0.353351
120	N	0.952091	0.95073	0.35291
121	C	0.962855	0.899056	0.352207
122	C	0.914418	0.874424	0.352455
123	C	0.876249	0.912134	0.352822
124	C	0.011699	0.872912	0.35165
125	C	0.060791	0.89838	0.351775
126	N	0.070632	0.950073	0.352006
127	C	0.122199	0.960523	0.351643
128	C	0.147064	0.912255	0.351446
129	C	0.109333	0.874082	0.351174
130	C	0.147109	0.009906	0.351663
131	C	0.202767	0.010613	0.350818
132	C	0.230234	0.000644	0.643487
133	C	0.285015	0.000737	0.642858
134	C	0.31396	0.010803	0.349337
135	C	0.286298	0.021253	0.389932
136	C	0.231534	0.020924	0.390713
137	C	0.011548	0.817253	0.350821
138	C	0.000963	0.789899	0.643548
139	C	0.000814	0.735111	0.642855
140	C	0.011273	0.70607	0.349201
141	C	0.022294	0.733634	0.389735
142	C	0.022202	0.788395	0.390588
143	C	0.817892	0.008617	0.35415
144	C	0.790159	0.997448	0.394439
145	C	0.735375	0.997211	0.394725
146	C	0.706692	0.008193	0.354955
147	C	0.734624	0.019609	0.648031
148	C	0.789384	0.019584	0.647583
149	C	0.009045	0.202115	0.354296
150	C	0.998428	0.229971	0.394636
151	C	0.019774	0.230515	0.647613
152	C	0.020062	0.285286	0.647984
153	C	0.00915	0.313327	0.354948
154	C	0.998449	0.284761	0.394847
155	H	0.990595	0.303782	0.424621
156	H	0.990577	0.210487	0.424176
157	H	0.028592	0.304356	0.618475
158	H	0.027763	0.211424	0.617907
159	H	0.113517	0.183955	0.354061
160	H	0.183402	0.114889	0.352146
161	H	0.042348	0.042058	0.352699
162	H	0.97832	0.977275	0.353029
163	H	0.903838	0.184256	0.354082
164	H	0.834495	0.114068	0.354744
165	H	0.809727	0.989533	0.423921
166	H	0.716435	0.989066	0.424485
167	H	0.808389	0.028079	0.617938
168	H	0.715475	0.028425	0.618627
169	H	0.837267	0.904425	0.352716
170	H	0.907179	0.83535	0.352248
171	H	0.186172	0.905241	0.351293
172	H	0.1168	0.835058	0.350661
173	H	0.993234	0.809742	0.614168
174	H	0.992929	0.716447	0.612911
175	H	0.030247	0.807133	0.420457
176	H	0.030759	0.714215	0.419081
177	H	0.212725	0.028394	0.420657
178	H	0.305651	0.029353	0.419394
179	H	0.303748	0.993195	0.612884
180	H	0.210471	0.993047	0.614035
181	N	0.010888	0.654233	0.345563
182	N	0.65484	0.008139	0.358317
183	N	0.009103	0.365192	0.358205
184	N	0.365802	0.010448	0.345784
185	C	0.01288	0.493592	0.639781
186	C	0.012988	0.547	0.65046
187	C	0.011969	0.564277	0.362797
188	C	0.010683	0.525735	0.397184
189	C	0.010531	0.472335	0.386502
190	C	0.011709	0.455046	0.674171
191	H	0.010009	0.536181	0.430755
192	H	0.014138	0.573184	0.624303
193	H	0.013866	0.483131	0.606217
194	H	0.009848	0.446163	0.412682
195	C	0.012361	0.402377	0.662331
196	H	0.015312	0.39319	0.629646
197	C	0.01278	0.616912	0.374729
198	H	0.014547	0.625974	0.407509
199	C	0.526405	0.012249	0.639998
200	C	0.473009	0.012409	0.650694
201	C	0.455745	0.011327	0.363035
202	C	0.494298	0.009917	0.397405
203	C	0.547694	0.009723	0.386705
204	C	0.564962	0.010962	0.674371
205	H	0.483861	0.009189	0.430979
206	H	0.446821	0.013641	0.624544
207	H	0.53685	0.013293	0.606431
208	H	0.573875	0.008951	0.412872
209	C	0.61762	0.011595	0.662501
210	H	0.626768	0.014729	0.629819
211	C	0.403107	0.012145	0.37497
212	H	0.394035	0.013701	0.407754
213	C	0.106261	0.144886	0.686847
214	C	0.144421	0.107179	0.685882
215	C	0.120384	0.058442	0.685753
216	N	0.068581	0.068601	0.686198
217	C	0.057806	0.12028	0.686714
218	C	0.008954	0.146436	0.687254
219	C	0.959871	0.12094	0.687292
220	N	0.950033	0.069245	0.687034
221	C	0.898462	0.058786	0.687163
222	C	0.873597	0.107049	0.687662
223	C	0.91132	0.145231	0.68737
224	C	0.873555	0.009395	0.687156
225	C	0.90029	0.960865	0.686684
226	N	0.952091	0.95073	0.686242
227	C	0.962855	0.899056	0.685539
228	C	0.914418	0.874424	0.685787
229	C	0.876249	0.912134	0.686154
230	C	0.011699	0.872912	0.684982
231	C	0.060791	0.89838	0.685111
232	N	0.070632	0.950073	0.685339
233	C	0.122199	0.960523	0.684975
234	C	0.147064	0.912255	0.684782
235	C	0.109333	0.874082	0.68451
236	C	0.147109	0.009906	0.684996
237	C	0.202767	0.010613	0.684153
238	C	0.230234	0.000644	0.976819
239	C	0.285015	0.000737	0.976194
240	C	0.31396	0.010803	0.682673
241	C	0.286298	0.021253	0.723264
242	C	0.231534	0.020924	0.724046
243	C	0.011548	0.817253	0.684153
244	C	0.000963	0.789899	0.97688
245	C	0.000814	0.735111	0.976187
246	C	0.011273	0.70607	0.682533
247	C	0.022294	0.733634	0.723071
248	C	0.022202	0.788395	0.72392
249	C	0.817892	0.008617	0.687482
250	C	0.790159	0.997448	0.727775
251	C	0.735375	0.997211	0.728057
252	C	0.706692	0.008193	0.688287
253	C	0.734624	0.019609	0.981364
254	C	0.789384	0.019584	0.980915
255	C	0.009045	0.202115	0.687631
256	C	0.998428	0.229971	0.727969
257	C	0.019774	0.230515	0.980949
258	C	0.020062	0.285286	0.981319
259	C	0.00915	0.313327	0.68828
260	C	0.998449	0.284761	0.728179
261	H	0.990595	0.303782	0.757953
262	H	0.990577	0.210487	0.757508
263	H	0.028592	0.304356	0.951807
264	H	0.027763	0.211424	0.951243
265	H	0.113517	0.183955	0.687394
266	H	0.183402	0.114889	0.685478
267	H	0.042348	0.042058	0.686032
268	H	0.97832	0.977275	0.686361
269	H	0.903838	0.184256	0.687414
270	H	0.834495	0.114068	0.688076
271	H	0.809727	0.989533	0.757254
272	H	0.716435	0.989066	0.757817
273	H	0.808389	0.028079	0.95127
274	H	0.715475	0.028425	0.95196
275	H	0.837267	0.904425	0.686049
276	H	0.907179	0.83535	0.68558
277	H	0.186172	0.905241	0.684626
278	H	0.1168	0.835058	0.683994
279	H	0.993234	0.809742	0.947504
280	H	0.992929	0.716447	0.946243
281	H	0.030247	0.807133	0.753789
282	H	0.030759	0.714215	0.752417
283	H	0.212725	0.028394	0.75399
284	H	0.305651	0.029353	0.752726
285	H	0.303748	0.993195	0.946216
286	H	0.210471	0.993047	0.947371
287	N	0.010888	0.654233	0.678899
288	N	0.65484	0.008139	0.69165
289	N	0.009103	0.365192	0.691537
290	N	0.365802	0.010448	0.679116
291	C	0.01288	0.493592	0.973113
292	C	0.012988	0.547	0.983796
293	C	0.011969	0.564277	0.69613
294	C	0.010683	0.525735	0.730516
295	C	0.010531	0.472335	0.719834
296	C	0.011709	0.455046	0.007507
297	H	0.010009	0.536181	0.764091
298	H	0.014138	0.573184	0.957635
299	H	0.013866	0.483131	0.939549
300	H	0.009848	0.446163	0.746014
301	C	0.012361	0.402377	0.995663
302	H	0.015312	0.39319	0.962978
303	C	0.01278	0.616912	0.708065
304	H	0.014547	0.625974	0.740842
305	C	0.526405	0.012249	0.973331
306	C	0.473009	0.012409	0.984026
307	C	0.455745	0.011327	0.696367
308	C	0.494298	0.009917	0.730737
309	C	0.547694	0.009723	0.720041
310	C	0.564962	0.010962	0.007707
311	H	0.483861	0.009189	0.764312
312	H	0.446821	0.013641	0.957877
313	H	0.53685	0.013293	0.939763
314	H	0.573875	0.008951	0.746208
315	C	0.61762	0.011595	0.995833
316	H	0.626768	0.014729	0.963155
317	C	0.403107	0.012145	0.708303
318	H	0.394035	0.013701	0.741086
