data_C360H288N72_2018-02-15_10:37:45
#******************************************
#
# CIF file created by Zeo++
# Zeo++ is an open source package to
# analyze microporous materials
#
#*******************************************

_cell_length_a		29.1562   
_cell_length_b		29.1562   
_cell_length_c		29.558   
_cell_angle_alpha		90   
_cell_angle_beta		90   
_cell_angle_gamma		120   

_symmetry_space_group_name_H-M		'P1'
_symmetry_Int_Tables_number		1
_symmetry_cell_setting		Monoclinic

loop_
_symmetry_equiv_pos_as_xyz
'+x,+y,+z'

loop_
_atom_site_label
_atom_site_type_symbol
_atom_site_fract_x
_atom_site_fract_y
_atom_site_fract_z
1	C	0.0389	0.271319	0.049372
2	C	0.067746	0.285742	0.007822
3	C	0.039518	0.271628	0.299284
4	C	0.066294	0.285017	0.094074
5	H	0.038781	0.27126	0.122578
6	H	0.091172	0.327921	0.097034
7	H	0.091173	0.266991	0.097035
8	C	0.065341	0.28454	0.253893
9	H	0.108458	0.306099	0.255315
10	H	0.053131	0.308861	0.235052
11	H	0.053132	0.24801	0.235051
12	C	0.0389	0.271319	0.382705
13	C	0.067746	0.285742	0.341156
14	C	0.039518	0.271628	0.632617
15	C	0.066294	0.285017	0.427407
16	H	0.038781	0.27126	0.45591
17	H	0.091172	0.327921	0.430367
18	H	0.091173	0.266991	0.430367
19	C	0.065341	0.28454	0.587228
20	H	0.108458	0.306099	0.588649
21	H	0.053131	0.308861	0.568384
22	H	0.053132	0.24801	0.568384
23	C	0.0389	0.271319	0.716039
24	C	0.067746	0.285742	0.67449
25	C	0.039518	0.271628	0.965951
26	C	0.066294	0.285017	0.760741
27	H	0.038781	0.27126	0.789244
28	H	0.091172	0.327921	0.763701
29	H	0.091173	0.266991	0.763701
30	C	0.065341	0.28454	0.920559
31	H	0.108458	0.306099	0.921983
32	H	0.053131	0.308861	0.901718
33	H	0.053132	0.24801	0.901718
34	C	0.038901	0.771322	0.049372
35	C	0.067746	0.785742	0.007822
36	C	0.039517	0.771627	0.299284
37	C	0.066293	0.785017	0.094074
38	H	0.03878	0.771259	0.122578
39	H	0.091171	0.82792	0.097034
40	H	0.091174	0.766993	0.097035
41	C	0.065341	0.784542	0.253893
42	H	0.108457	0.806098	0.255315
43	H	0.05313	0.808863	0.235052
44	H	0.053132	0.748011	0.235051
45	C	0.038901	0.771322	0.382705
46	C	0.067746	0.785742	0.341156
47	C	0.039517	0.771627	0.632617
48	C	0.066293	0.785017	0.427407
49	H	0.03878	0.771259	0.45591
50	H	0.091171	0.82792	0.430367
51	H	0.091174	0.766993	0.430367
52	C	0.065341	0.784542	0.587228
53	H	0.108457	0.806098	0.588649
54	H	0.05313	0.808863	0.568384
55	H	0.053132	0.748011	0.568384
56	C	0.038901	0.771322	0.716039
57	C	0.067746	0.785742	0.67449
58	C	0.039517	0.771627	0.965951
59	C	0.066293	0.785017	0.760741
60	H	0.03878	0.771259	0.789244
61	H	0.091171	0.82792	0.763701
62	H	0.091174	0.766993	0.763701
63	C	0.065341	0.784542	0.920559
64	H	0.108457	0.806098	0.921983
65	H	0.05313	0.808863	0.901718
66	H	0.053132	0.748011	0.901718
67	N	0.15107	0.367621	0.00835
68	C	0.123662	0.313701	0.008491
69	N	0.15107	0.287188	0.00835
70	N	0.15107	0.367621	0.341684
71	C	0.123662	0.313701	0.341826
72	N	0.15107	0.287188	0.341684
73	N	0.15107	0.367621	0.675018
74	C	0.123662	0.313701	0.675157
75	N	0.15107	0.287188	0.675018
76	N	0.151071	0.867623	0.00835
77	C	0.123663	0.813702	0.008491
78	N	0.15107	0.787187	0.00835
79	N	0.151071	0.867623	0.341684
80	C	0.123663	0.813702	0.341826
81	N	0.15107	0.787187	0.341684
82	N	0.151071	0.867623	0.675018
83	C	0.123663	0.813702	0.675157
84	N	0.15107	0.787187	0.675018
85	C	0.204991	0.395028	0.008491
86	C	0.20499	0.3137	0.008491
87	H	0.19077	0.266989	0.097034
88	H	0.212592	0.306097	0.255315
89	H	0.20983	0.248009	0.235052
90	H	0.190771	0.42752	0.097034
91	H	0.212593	0.410233	0.255315
92	H	0.20983	0.46556	0.235052
93	C	0.204991	0.395028	0.341826
94	C	0.20499	0.3137	0.341826
95	H	0.19077	0.266989	0.430367
96	H	0.212592	0.306097	0.588649
97	H	0.20983	0.248009	0.568384
98	H	0.190771	0.42752	0.430367
99	H	0.212593	0.410233	0.588649
100	H	0.20983	0.46556	0.568384
101	C	0.204991	0.395028	0.675157
102	C	0.20499	0.3137	0.675157
103	H	0.19077	0.266989	0.763701
104	H	0.212592	0.306097	0.921983
105	H	0.20983	0.248009	0.901718
106	H	0.190771	0.42752	0.763701
107	H	0.212593	0.410233	0.921983
108	H	0.20983	0.46556	0.901718
109	C	0.20499	0.895029	0.008491
110	C	0.204991	0.813702	0.008491
111	H	0.19077	0.766989	0.097034
112	H	0.212592	0.806098	0.255315
113	H	0.209831	0.748011	0.235052
114	H	0.19077	0.92752	0.097034
115	H	0.212592	0.910233	0.255315
116	H	0.20983	0.965559	0.235052
117	C	0.20499	0.895029	0.341826
118	C	0.204991	0.813702	0.341826
119	H	0.19077	0.766989	0.430367
120	H	0.212592	0.806098	0.588649
121	H	0.209831	0.748011	0.568384
122	H	0.19077	0.92752	0.430367
123	H	0.212592	0.910233	0.588649
124	H	0.20983	0.965559	0.568384
125	C	0.20499	0.895029	0.675157
126	C	0.204991	0.813702	0.675157
127	H	0.19077	0.766989	0.763701
128	H	0.212592	0.806098	0.921983
129	H	0.209831	0.748011	0.901718
130	H	0.19077	0.92752	0.763701
131	H	0.212592	0.910233	0.921983
132	H	0.20983	0.965559	0.901718
133	N	0.231503	0.367621	0.00835
134	C	0.317443	0.119933	0.006962
135	N	0.371362	0.147329	0.007019
136	C	0.398758	0.201248	0.006962
137	N	0.371362	0.22777	0.007019
138	C	0.317443	0.201248	0.006962
139	N	0.290921	0.147329	0.007019
140	C	0.289576	0.229116	0.340601
141	C	0.275445	0.243246	0.048367
142	C	0.247372	0.27132	0.049372
143	C	0.232949	0.285742	0.007822
144	C	0.247063	0.271628	0.299284
145	H	0.28587	0.232821	0.078117
146	C	0.275141	0.24355	0.299812
147	H	0.285327	0.233365	0.269786
148	C	0.233674	0.285016	0.094074
149	H	0.247431	0.271259	0.122578
150	H	0.2517	0.32792	0.097035
151	C	0.234151	0.284539	0.253893
152	H	0.270681	0.308861	0.235051
153	C	0.289576	0.064198	0.340601
154	C	0.275445	0.035937	0.048367
155	C	0.247371	0.47979	0.049372
156	C	0.23295	0.450946	0.007822
157	C	0.247062	0.479172	0.299284
158	H	0.28587	0.056787	0.078117
159	C	0.275141	0.035329	0.299812
160	H	0.285326	0.055699	0.269786
161	C	0.233674	0.452396	0.094074
162	H	0.24743	0.479908	0.122578
163	H	0.251702	0.42752	0.097035
164	C	0.234151	0.45335	0.253893
165	H	0.270682	0.46556	0.235051
166	C	0.454493	0.229115	0.340601
167	C	0.482753	0.243245	0.048367
168	H	0.461904	0.23282	0.078117
169	C	0.483362	0.24355	0.299812
170	H	0.462993	0.233365	0.269786
171	N	0.231503	0.367621	0.341684
172	C	0.317443	0.119933	0.340293
173	N	0.371362	0.147329	0.340354
174	C	0.398758	0.201248	0.340293
175	N	0.371362	0.22777	0.340354
176	C	0.317443	0.201248	0.340293
177	N	0.290921	0.147329	0.340354
178	C	0.289576	0.229116	0.673936
179	C	0.275445	0.243246	0.3817
180	C	0.247372	0.27132	0.382705
181	C	0.232949	0.285742	0.341156
182	C	0.247063	0.271628	0.632617
183	H	0.28587	0.232821	0.411452
184	C	0.275141	0.24355	0.633145
185	H	0.285327	0.233365	0.603119
186	C	0.233674	0.285016	0.427407
187	H	0.247431	0.271259	0.45591
188	H	0.2517	0.32792	0.430367
189	C	0.234151	0.284539	0.587228
190	H	0.270681	0.308861	0.568384
191	C	0.289576	0.064198	0.673936
192	C	0.275445	0.035937	0.3817
193	C	0.247371	0.47979	0.382705
194	C	0.23295	0.450946	0.341156
195	C	0.247062	0.479172	0.632617
196	H	0.28587	0.056787	0.411452
197	C	0.275141	0.035329	0.633145
198	H	0.285326	0.055699	0.603119
199	C	0.233674	0.452396	0.427407
200	H	0.24743	0.479908	0.45591
201	H	0.251702	0.42752	0.430367
202	C	0.234151	0.45335	0.587228
203	H	0.270682	0.46556	0.568384
204	C	0.454493	0.229115	0.673936
205	C	0.482753	0.243245	0.3817
206	H	0.461904	0.23282	0.411452
207	C	0.483362	0.24355	0.633145
208	H	0.462993	0.233365	0.603119
209	N	0.231503	0.367621	0.675018
210	C	0.317443	0.119933	0.673628
211	N	0.371362	0.147329	0.673689
212	C	0.398758	0.201248	0.673628
213	N	0.371362	0.22777	0.673689
214	C	0.317443	0.201248	0.673628
215	N	0.290921	0.147329	0.673689
216	C	0.289576	0.229116	0.00727
217	C	0.275445	0.243246	0.715034
218	C	0.247372	0.27132	0.716039
219	C	0.232949	0.285742	0.67449
220	C	0.247063	0.271628	0.965951
221	H	0.28587	0.232821	0.744783
222	C	0.275141	0.24355	0.966479
223	H	0.285327	0.233365	0.936453
224	C	0.233674	0.285016	0.760741
225	H	0.247431	0.271259	0.789244
226	H	0.2517	0.32792	0.763701
227	C	0.234151	0.284539	0.920559
228	H	0.270681	0.308861	0.901718
229	C	0.289576	0.064198	0.00727
230	C	0.275445	0.035937	0.715034
231	C	0.247371	0.47979	0.716039
232	C	0.23295	0.450946	0.67449
233	C	0.247062	0.479172	0.965951
234	H	0.28587	0.056787	0.744783
235	C	0.275141	0.035329	0.966479
236	H	0.285326	0.055699	0.936453
237	C	0.233674	0.452396	0.760741
238	H	0.24743	0.479908	0.789244
239	H	0.251702	0.42752	0.763701
240	C	0.234151	0.45335	0.920559
241	H	0.270682	0.46556	0.901718
242	C	0.454493	0.229115	0.00727
243	C	0.482753	0.243245	0.715034
244	H	0.461904	0.23282	0.744783
245	C	0.483362	0.24355	0.966479
246	H	0.462993	0.233365	0.936453
247	N	0.231504	0.867623	0.00835
248	C	0.317442	0.619932	0.006962
249	N	0.371362	0.64733	0.007019
250	C	0.398758	0.701247	0.006962
251	N	0.371361	0.72777	0.007019
252	C	0.317442	0.701247	0.006962
253	N	0.290921	0.64733	0.007019
254	C	0.289576	0.729116	0.340601
255	C	0.275446	0.743247	0.048367
256	C	0.247372	0.771322	0.049372
257	C	0.232948	0.785742	0.007822
258	C	0.247062	0.771627	0.299284
259	H	0.285871	0.732823	0.078117
260	C	0.275142	0.743552	0.299812
261	H	0.285326	0.733366	0.269786
262	C	0.233675	0.785017	0.094074
263	H	0.247431	0.771259	0.122578
264	H	0.2517	0.82792	0.097035
265	C	0.234152	0.784542	0.253893
266	H	0.270682	0.808863	0.235051
267	C	0.289575	0.564197	0.340601
268	C	0.275444	0.535936	0.048367
269	C	0.24737	0.979789	0.049372
270	C	0.232949	0.950946	0.007822
271	C	0.247064	0.979175	0.299284
272	H	0.28587	0.556788	0.078117
273	C	0.275141	0.53533	0.299812
274	H	0.285325	0.555698	0.269786
275	C	0.233675	0.952399	0.094074
276	H	0.247432	0.979912	0.122578
277	H	0.251701	0.92752	0.097035
278	C	0.23415	0.953349	0.253893
279	H	0.270681	0.965559	0.235051
280	C	0.454493	0.729116	0.340601
281	C	0.482754	0.743247	0.048367
282	H	0.461904	0.732823	0.078117
283	C	0.483363	0.743552	0.299812
284	H	0.462992	0.733366	0.269786
285	N	0.231504	0.867623	0.341684
286	C	0.317442	0.619932	0.340293
287	N	0.371362	0.64733	0.340354
288	C	0.398758	0.701247	0.340293
289	N	0.371361	0.72777	0.340354
290	C	0.317442	0.701247	0.340293
291	N	0.290921	0.64733	0.340354
292	C	0.289576	0.729116	0.673936
293	C	0.275446	0.743247	0.3817
294	C	0.247372	0.771322	0.382705
295	C	0.232948	0.785742	0.341156
296	C	0.247062	0.771627	0.632617
297	H	0.285871	0.732823	0.411452
298	C	0.275142	0.743552	0.633145
299	H	0.285326	0.733366	0.603119
300	C	0.233675	0.785017	0.427407
301	H	0.247431	0.771259	0.45591
302	H	0.2517	0.82792	0.430367
303	C	0.234152	0.784542	0.587228
304	H	0.270682	0.808863	0.568384
305	C	0.289575	0.564197	0.673936
306	C	0.275444	0.535936	0.3817
307	C	0.24737	0.979789	0.382705
308	C	0.232949	0.950946	0.341156
309	C	0.247064	0.979175	0.632617
310	H	0.28587	0.556788	0.411452
311	C	0.275141	0.53533	0.633145
312	H	0.285325	0.555698	0.603119
313	C	0.233675	0.952399	0.427407
314	H	0.247432	0.979912	0.45591
315	H	0.251701	0.92752	0.430367
316	C	0.23415	0.953349	0.587228
317	H	0.270681	0.965559	0.568384
318	C	0.454493	0.729116	0.673936
319	C	0.482754	0.743247	0.3817
320	H	0.461904	0.732823	0.411452
321	C	0.483363	0.743552	0.633145
322	H	0.462992	0.733366	0.603119
323	N	0.231504	0.867623	0.675018
324	C	0.317442	0.619932	0.673628
325	N	0.371362	0.64733	0.673689
326	C	0.398758	0.701247	0.673628
327	N	0.371361	0.72777	0.673689
328	C	0.317442	0.701247	0.673628
329	N	0.290921	0.64733	0.673689
330	C	0.289576	0.729116	0.00727
331	C	0.275446	0.743247	0.715034
332	C	0.247372	0.771322	0.716039
333	C	0.232948	0.785742	0.67449
334	C	0.247062	0.771627	0.965951
335	H	0.285871	0.732823	0.744783
336	C	0.275142	0.743552	0.966479
337	H	0.285326	0.733366	0.936453
338	C	0.233675	0.785017	0.760741
339	H	0.247431	0.771259	0.789244
340	H	0.2517	0.82792	0.763701
341	C	0.234152	0.784542	0.920559
342	H	0.270682	0.808863	0.901718
343	C	0.289575	0.564197	0.00727
344	C	0.275444	0.535936	0.715034
345	C	0.24737	0.979789	0.716039
346	C	0.232949	0.950946	0.67449
347	C	0.247064	0.979175	0.965951
348	H	0.28587	0.556788	0.744783
349	C	0.275141	0.53533	0.966479
350	H	0.285325	0.555698	0.936453
351	C	0.233675	0.952399	0.760741
352	H	0.247432	0.979912	0.789244
353	H	0.251701	0.92752	0.763701
354	C	0.23415	0.953349	0.920559
355	H	0.270681	0.965559	0.901718
356	C	0.454493	0.729116	0.00727
357	C	0.482754	0.743247	0.715034
358	H	0.461904	0.732823	0.744783
359	C	0.483363	0.743552	0.966479
360	H	0.462992	0.733366	0.936453
361	C	0.704991	0.395028	0.008491
362	N	0.651073	0.367621	0.00835
363	C	0.623664	0.313701	0.008491
364	N	0.651071	0.287188	0.00835
365	C	0.704991	0.3137	0.008491
366	N	0.731505	0.367621	0.00835
367	C	0.817445	0.119933	0.006962
368	N	0.871361	0.147329	0.007019
369	C	0.898759	0.201248	0.006962
370	N	0.871364	0.22777	0.007019
371	C	0.817446	0.201248	0.006962
372	N	0.790922	0.147329	0.007019
373	C	0.789577	0.229116	0.340601
374	C	0.775446	0.243246	0.048367
375	C	0.747372	0.27132	0.049372
376	C	0.732948	0.285742	0.007822
377	C	0.747063	0.271628	0.299284
378	H	0.78587	0.232821	0.078117
379	C	0.775142	0.24355	0.299812
380	H	0.785326	0.233365	0.269786
381	C	0.733675	0.285016	0.094074
382	H	0.747431	0.271259	0.122578
383	H	0.690772	0.266989	0.097034
384	H	0.751701	0.32792	0.097035
385	C	0.734151	0.284539	0.253893
386	H	0.712593	0.306097	0.255315
387	H	0.709832	0.248009	0.235052
388	H	0.770683	0.308861	0.235051
389	C	0.789578	0.064198	0.340601
390	C	0.775447	0.035937	0.048367
391	C	0.747372	0.47979	0.049372
392	C	0.73295	0.450946	0.007822
393	C	0.747063	0.479172	0.299284
394	H	0.785872	0.056787	0.078117
395	C	0.775143	0.035329	0.299812
396	H	0.785328	0.055699	0.269786
397	C	0.733675	0.452396	0.094074
398	H	0.747431	0.479908	0.122578
399	H	0.751704	0.42752	0.097035
400	H	0.69077	0.42752	0.097034
401	C	0.734152	0.45335	0.253893
402	H	0.712594	0.410233	0.255315
403	H	0.770683	0.46556	0.235051
404	H	0.709831	0.46556	0.235052
405	C	0.954495	0.229115	0.340601
406	C	0.982753	0.243245	0.048367
407	C	0.538902	0.271319	0.049372
408	C	0.567748	0.285742	0.007822
409	C	0.539519	0.271628	0.299284
410	H	0.961904	0.23282	0.078117
411	C	0.983362	0.24355	0.299812
412	H	0.962993	0.233365	0.269786
413	C	0.566295	0.285017	0.094074
414	H	0.538783	0.27126	0.122578
415	H	0.591173	0.327921	0.097034
416	H	0.591175	0.266991	0.097035
417	C	0.565343	0.28454	0.253893
418	H	0.608459	0.306099	0.255315
419	H	0.553131	0.308861	0.235052
420	H	0.553132	0.24801	0.235051
421	C	0.704991	0.395028	0.341826
422	N	0.651073	0.367621	0.341684
423	C	0.623664	0.313701	0.341826
424	N	0.651071	0.287188	0.341684
425	C	0.704991	0.3137	0.341826
426	N	0.731505	0.367621	0.341684
427	C	0.817445	0.119933	0.340293
428	N	0.871361	0.147329	0.340354
429	C	0.898759	0.201248	0.340293
430	N	0.871364	0.22777	0.340354
431	C	0.817446	0.201248	0.340293
432	N	0.790922	0.147329	0.340354
433	C	0.789577	0.229116	0.673936
434	C	0.775446	0.243246	0.3817
435	C	0.747372	0.27132	0.382705
436	C	0.732948	0.285742	0.341156
437	C	0.747063	0.271628	0.632617
438	H	0.78587	0.232821	0.411452
439	C	0.775142	0.24355	0.633145
440	H	0.785326	0.233365	0.603119
441	C	0.733675	0.285016	0.427407
442	H	0.747431	0.271259	0.45591
443	H	0.690772	0.266989	0.430367
444	H	0.751701	0.32792	0.430367
445	C	0.734151	0.284539	0.587228
446	H	0.712593	0.306097	0.588649
447	H	0.709832	0.248009	0.568384
448	H	0.770683	0.308861	0.568384
449	C	0.789578	0.064198	0.673936
450	C	0.775447	0.035937	0.3817
451	C	0.747372	0.47979	0.382705
452	C	0.73295	0.450946	0.341156
453	C	0.747063	0.479172	0.632617
454	H	0.785872	0.056787	0.411452
455	C	0.775143	0.035329	0.633145
456	H	0.785328	0.055699	0.603119
457	C	0.733675	0.452396	0.427407
458	H	0.747431	0.479908	0.45591
459	H	0.751704	0.42752	0.430367
460	H	0.69077	0.42752	0.430367
461	C	0.734152	0.45335	0.587228
462	H	0.712594	0.410233	0.588649
463	H	0.770683	0.46556	0.568384
464	H	0.709831	0.46556	0.568384
465	C	0.954495	0.229115	0.673936
466	C	0.982753	0.243245	0.3817
467	C	0.538902	0.271319	0.382705
468	C	0.567748	0.285742	0.341156
469	C	0.539519	0.271628	0.632617
470	H	0.961904	0.23282	0.411452
471	C	0.983362	0.24355	0.633145
472	H	0.962993	0.233365	0.603119
473	C	0.566295	0.285017	0.427407
474	H	0.538783	0.27126	0.45591
475	H	0.591173	0.327921	0.430367
476	H	0.591175	0.266991	0.430367
477	C	0.565343	0.28454	0.587228
478	H	0.608459	0.306099	0.588649
479	H	0.553131	0.308861	0.568384
480	H	0.553132	0.24801	0.568384
481	C	0.704991	0.395028	0.675157
482	N	0.651073	0.367621	0.675018
483	C	0.623664	0.313701	0.675157
484	N	0.651071	0.287188	0.675018
485	C	0.704991	0.3137	0.675157
486	N	0.731505	0.367621	0.675018
487	C	0.817445	0.119933	0.673628
488	N	0.871361	0.147329	0.673689
489	C	0.898759	0.201248	0.673628
490	N	0.871364	0.22777	0.673689
491	C	0.817446	0.201248	0.673628
492	N	0.790922	0.147329	0.673689
493	C	0.789577	0.229116	0.00727
494	C	0.775446	0.243246	0.715034
495	C	0.747372	0.27132	0.716039
496	C	0.732948	0.285742	0.67449
497	C	0.747063	0.271628	0.965951
498	H	0.78587	0.232821	0.744783
499	C	0.775142	0.24355	0.966479
500	H	0.785326	0.233365	0.936453
501	C	0.733675	0.285016	0.760741
502	H	0.747431	0.271259	0.789244
503	H	0.690772	0.266989	0.763701
504	H	0.751701	0.32792	0.763701
505	C	0.734151	0.284539	0.920559
506	H	0.712593	0.306097	0.921983
507	H	0.709832	0.248009	0.901718
508	H	0.770683	0.308861	0.901718
509	C	0.789578	0.064198	0.00727
510	C	0.775447	0.035937	0.715034
511	C	0.747372	0.47979	0.716039
512	C	0.73295	0.450946	0.67449
513	C	0.747063	0.479172	0.965951
514	H	0.785872	0.056787	0.744783
515	C	0.775143	0.035329	0.966479
516	H	0.785328	0.055699	0.936453
517	C	0.733675	0.452396	0.760741
518	H	0.747431	0.479908	0.789244
519	H	0.751704	0.42752	0.763701
520	H	0.69077	0.42752	0.763701
521	C	0.734152	0.45335	0.920559
522	H	0.712594	0.410233	0.921983
523	H	0.770683	0.46556	0.901718
524	H	0.709831	0.46556	0.901718
525	C	0.954495	0.229115	0.00727
526	C	0.982753	0.243245	0.715034
527	C	0.538902	0.271319	0.716039
528	C	0.567748	0.285742	0.67449
529	C	0.539519	0.271628	0.965951
530	H	0.961904	0.23282	0.744783
531	C	0.983362	0.24355	0.966479
532	H	0.962993	0.233365	0.936453
533	C	0.566295	0.285017	0.760741
534	H	0.538783	0.27126	0.789244
535	H	0.591173	0.327921	0.763701
536	H	0.591175	0.266991	0.763701
537	C	0.565343	0.28454	0.920559
538	H	0.608459	0.306099	0.921983
539	H	0.553131	0.308861	0.901718
540	H	0.553132	0.24801	0.901718
541	C	0.704991	0.895029	0.008491
542	N	0.651072	0.867623	0.00835
543	C	0.623664	0.813702	0.008491
544	N	0.65107	0.787187	0.00835
545	C	0.704992	0.813702	0.008491
546	N	0.731504	0.867623	0.00835
547	C	0.817443	0.619932	0.006962
548	N	0.871363	0.64733	0.007019
549	C	0.898757	0.701247	0.006962
550	N	0.871362	0.72777	0.007019
551	C	0.817443	0.701247	0.006962
552	N	0.790921	0.64733	0.007019
553	C	0.789576	0.729116	0.340601
554	C	0.775445	0.743247	0.048367
555	C	0.747375	0.771322	0.049372
556	C	0.732949	0.785742	0.007822
557	C	0.747064	0.771627	0.299284
558	H	0.785873	0.732823	0.078117
559	C	0.775141	0.743552	0.299812
560	H	0.785328	0.733366	0.269786
561	C	0.733675	0.785017	0.094074
562	H	0.747432	0.771259	0.122578
563	H	0.69077	0.766989	0.097034
564	H	0.7517	0.82792	0.097035
565	C	0.734153	0.784542	0.253893
566	H	0.712593	0.806098	0.255315
567	H	0.709832	0.748011	0.235052
568	H	0.770683	0.808863	0.235051
569	C	0.789576	0.564197	0.340601
570	C	0.775445	0.535936	0.048367
571	C	0.747371	0.979789	0.049372
572	C	0.73295	0.950946	0.007822
573	C	0.747064	0.979175	0.299284
574	H	0.785871	0.556788	0.078117
575	C	0.775142	0.53533	0.299812
576	H	0.785326	0.555698	0.269786
577	C	0.733676	0.952399	0.094074
578	H	0.747432	0.979912	0.122578
579	H	0.751702	0.92752	0.097035
580	H	0.690771	0.92752	0.097034
581	C	0.734151	0.953349	0.253893
582	H	0.712593	0.910233	0.255315
583	H	0.770682	0.965559	0.235051
584	H	0.709831	0.965559	0.235052
585	C	0.954494	0.729116	0.340601
586	C	0.982756	0.743247	0.048367
587	C	0.538902	0.771322	0.049372
588	C	0.567747	0.785742	0.007822
589	C	0.539518	0.771627	0.299284
590	H	0.961904	0.732823	0.078117
591	C	0.983364	0.743552	0.299812
592	H	0.962992	0.733366	0.269786
593	C	0.566295	0.785017	0.094074
594	H	0.53878	0.771259	0.122578
595	H	0.591171	0.82792	0.097034
596	H	0.591174	0.766993	0.097035
597	C	0.565342	0.784542	0.253893
598	H	0.608458	0.806098	0.255315
599	H	0.553133	0.808863	0.235052
600	H	0.553133	0.748011	0.235051
601	C	0.704991	0.895029	0.341826
602	N	0.651072	0.867623	0.341684
603	C	0.623664	0.813702	0.341826
604	N	0.65107	0.787187	0.341684
605	C	0.704992	0.813702	0.341826
606	N	0.731504	0.867623	0.341684
607	C	0.817443	0.619932	0.340293
608	N	0.871363	0.64733	0.340354
609	C	0.898757	0.701247	0.340293
610	N	0.871362	0.72777	0.340354
611	C	0.817443	0.701247	0.340293
612	N	0.790921	0.64733	0.340354
613	C	0.789576	0.729116	0.673936
614	C	0.775445	0.743247	0.3817
615	C	0.747375	0.771322	0.382705
616	C	0.732949	0.785742	0.341156
617	C	0.747064	0.771627	0.632617
618	H	0.785873	0.732823	0.411452
619	C	0.775141	0.743552	0.633145
620	H	0.785328	0.733366	0.603119
621	C	0.733675	0.785017	0.427407
622	H	0.747432	0.771259	0.45591
623	H	0.69077	0.766989	0.430367
624	H	0.7517	0.82792	0.430367
625	C	0.734153	0.784542	0.587228
626	H	0.712593	0.806098	0.588649
627	H	0.709832	0.748011	0.568384
628	H	0.770683	0.808863	0.568384
629	C	0.789576	0.564197	0.673936
630	C	0.775445	0.535936	0.3817
631	C	0.747371	0.979789	0.382705
632	C	0.73295	0.950946	0.341156
633	C	0.747064	0.979175	0.632617
634	H	0.785871	0.556788	0.411452
635	C	0.775142	0.53533	0.633145
636	H	0.785326	0.555698	0.603119
637	C	0.733676	0.952399	0.427407
638	H	0.747432	0.979912	0.45591
639	H	0.751702	0.92752	0.430367
640	H	0.690771	0.92752	0.430367
641	C	0.734151	0.953349	0.587228
642	H	0.712593	0.910233	0.588649
643	H	0.770682	0.965559	0.568384
644	H	0.709831	0.965559	0.568384
645	C	0.954494	0.729116	0.673936
646	C	0.982756	0.743247	0.3817
647	C	0.538902	0.771322	0.382705
648	C	0.567747	0.785742	0.341156
649	C	0.539518	0.771627	0.632617
650	H	0.961904	0.732823	0.411452
651	C	0.983364	0.743552	0.633145
652	H	0.962992	0.733366	0.603119
653	C	0.566295	0.785017	0.427407
654	H	0.53878	0.771259	0.45591
655	H	0.591171	0.82792	0.430367
656	H	0.591174	0.766993	0.430367
657	C	0.565342	0.784542	0.587228
658	H	0.608458	0.806098	0.588649
659	H	0.553133	0.808863	0.568384
660	H	0.553133	0.748011	0.568384
661	C	0.704991	0.895029	0.675157
662	N	0.651072	0.867623	0.675018
663	C	0.623664	0.813702	0.675157
664	N	0.65107	0.787187	0.675018
665	C	0.704992	0.813702	0.675157
666	N	0.731504	0.867623	0.675018
667	C	0.817443	0.619932	0.673628
668	N	0.871363	0.64733	0.673689
669	C	0.898757	0.701247	0.673628
670	N	0.871362	0.72777	0.673689
671	C	0.817443	0.701247	0.673628
672	N	0.790921	0.64733	0.673689
673	C	0.789576	0.729116	0.00727
674	C	0.775445	0.743247	0.715034
675	C	0.747375	0.771322	0.716039
676	C	0.732949	0.785742	0.67449
677	C	0.747064	0.771627	0.965951
678	H	0.785873	0.732823	0.744783
679	C	0.775141	0.743552	0.966479
680	H	0.785328	0.733366	0.936453
681	C	0.733675	0.785017	0.760741
682	H	0.747432	0.771259	0.789244
683	H	0.69077	0.766989	0.763701
684	H	0.7517	0.82792	0.763701
685	C	0.734153	0.784542	0.920559
686	H	0.712593	0.806098	0.921983
687	H	0.709832	0.748011	0.901718
688	H	0.770683	0.808863	0.901718
689	C	0.789576	0.564197	0.00727
690	C	0.775445	0.535936	0.715034
691	C	0.747371	0.979789	0.716039
692	C	0.73295	0.950946	0.67449
693	C	0.747064	0.979175	0.965951
694	H	0.785871	0.556788	0.744783
695	C	0.775142	0.53533	0.966479
696	H	0.785326	0.555698	0.936453
697	C	0.733676	0.952399	0.760741
698	H	0.747432	0.979912	0.789244
699	H	0.751702	0.92752	0.763701
700	H	0.690771	0.92752	0.763701
701	C	0.734151	0.953349	0.920559
702	H	0.712593	0.910233	0.921983
703	H	0.770682	0.965559	0.901718
704	H	0.709831	0.965559	0.901718
705	C	0.954494	0.729116	0.00727
706	C	0.982756	0.743247	0.715034
707	C	0.538902	0.771322	0.716039
708	C	0.567747	0.785742	0.67449
709	C	0.539518	0.771627	0.965951
710	H	0.961904	0.732823	0.744783
711	C	0.983364	0.743552	0.966479
712	H	0.962992	0.733366	0.936453
713	C	0.566295	0.785017	0.760741
714	H	0.53878	0.771259	0.789244
715	H	0.591171	0.82792	0.763701
716	H	0.591174	0.766993	0.763701
717	C	0.565342	0.784542	0.920559
718	H	0.608458	0.806098	0.921983
719	H	0.553133	0.808863	0.901718
720	H	0.553133	0.748011	0.901718
