data_C288H180N252O72_2018-02-15_10:32:38
#******************************************
#
# CIF file created by Zeo++
# Zeo++ is an open source package to
# analyze microporous materials
#
#*******************************************

_cell_length_a		43.2106   
_cell_length_b		43.2106   
_cell_length_c		30.0946   
_cell_angle_alpha		90   
_cell_angle_beta		90   
_cell_angle_gamma		120   

_symmetry_space_group_name_H-M		'P1'
_symmetry_Int_Tables_number		1
_symmetry_cell_setting		Monoclinic

loop_
_symmetry_equiv_pos_as_xyz
'+x,+y,+z'

loop_
_atom_site_label
_atom_site_type_symbol
_atom_site_fract_x
_atom_site_fract_y
_atom_site_fract_z
1	C	0.12798	0.317946	0.377762
2	N	0.150783	0.353789	0.044164
3	C	0.186834	0.368096	0.044426
4	N	0.199878	0.345296	0.044166
5	C	0.178137	0.309245	0.044437
6	N	0.142293	0.296204	0.044165
7	C	0.210161	0.405203	0.040931
8	C	0.191913	0.285919	0.040933
9	C	0.090876	0.304162	0.040918
10	O	0.167768	0.250605	0.036789
11	O	0.079707	0.328306	0.036769
12	O	0.245471	0.416368	0.036759
13	C	0.365716	0.172277	0.298013
14	N	0.337991	0.138133	0.965081
15	C	0.303406	0.130364	0.964715
16	N	0.296985	0.158086	0.965051
17	C	0.323803	0.192668	0.964659
18	N	0.357949	0.199093	0.965031
19	C	0.274974	0.095198	0.970387
20	C	0.31709	0.221117	0.970307
21	C	0.400873	0.178982	0.970364
22	O	0.346108	0.254374	0.971098
23	O	0.405096	0.149956	0.971218
24	O	0.241712	0.090947	0.971168
25	C	0.273429	0.238796	0.326578
26	C	0.295594	0.271448	0.015367
27	C	0.281473	0.291878	0.034035
28	C	0.24415	0.278936	0.029046
29	N	0.224729	0.246992	0.341377
30	N	0.238101	0.228239	0.325163
31	N	0.304032	0.321986	0.057085
32	H	0.329147	0.329263	0.060824
33	H	0.295523	0.335318	0.07402
34	H	0.321857	0.279639	0.020654
35	N	0.227729	0.297701	0.041096
36	H	0.243209	0.322646	0.048663
37	N	0.283461	0.215861	0.309508
38	H	0.263772	0.192253	0.30161
39	C	0.257301	0.033858	0.326644
40	C	0.22464	0.023363	0.01542
41	C	0.204197	0.488802	0.034051
42	C	0.217125	0.464412	0.029024
43	N	0.249082	0.476945	0.34138
44	N	0.267849	0.009081	0.325203
45	N	0.1741	0.481263	0.057116
46	H	0.166687	0.499026	0.060645
47	H	0.160552	0.459308	0.073739
48	H	0.216491	0.041463	0.020774
49	N	0.198376	0.429235	0.041105
50	H	0.173437	0.419761	0.048698
51	N	0.280242	0.066832	0.309598
52	H	0.303854	0.070756	0.30171
53	C	0.462213	0.22265	0.326637
54	C	0.472715	0.200488	0.015409
55	C	0.007279	0.214605	0.034032
56	C	0.031662	0.251925	0.029011
57	N	0.019129	0.271347	0.341367
58	N	0.486992	0.257974	0.325189
59	N	0.014836	0.192064	0.057111
60	H	0.996977	0.166935	0.060877
61	H	0.036669	0.200563	0.07401
62	H	0.454638	0.174225	0.02072
63	N	0.066843	0.268346	0.041079
64	H	0.076314	0.252873	0.04865
65	N	0.429245	0.212611	0.309564
66	H	0.425331	0.232299	0.301646
67	C	0.12798	0.317946	0.711095
68	N	0.150783	0.353789	0.377496
69	C	0.186834	0.368096	0.377759
70	N	0.199878	0.345296	0.3775
71	C	0.178137	0.309245	0.377769
72	N	0.142293	0.296204	0.377496
73	C	0.210161	0.405203	0.374263
74	C	0.191913	0.285919	0.374267
75	C	0.090876	0.304162	0.37425
76	O	0.167768	0.250605	0.370123
77	O	0.079707	0.328306	0.370103
78	O	0.245471	0.416368	0.370093
79	C	0.365716	0.172277	0.631346
80	N	0.337991	0.138133	0.298415
81	C	0.303406	0.130364	0.298047
82	N	0.296985	0.158086	0.298384
83	C	0.323803	0.192668	0.297992
84	N	0.357949	0.199093	0.298364
85	C	0.274974	0.095198	0.303721
86	C	0.31709	0.221117	0.30364
87	C	0.400873	0.178982	0.303698
88	O	0.346108	0.254374	0.304431
89	O	0.405096	0.149956	0.304551
90	O	0.241712	0.090947	0.304501
91	C	0.273429	0.238796	0.659913
92	C	0.295594	0.271448	0.348701
93	C	0.281473	0.291878	0.367368
94	C	0.24415	0.278936	0.362381
95	N	0.224729	0.246992	0.674709
96	N	0.238101	0.228239	0.658497
97	N	0.304032	0.321986	0.390419
98	H	0.329147	0.329263	0.394157
99	H	0.295523	0.335318	0.407352
100	H	0.321857	0.279639	0.353987
101	N	0.227729	0.297701	0.374429
102	H	0.243209	0.322646	0.381996
103	N	0.283461	0.215861	0.64284
104	H	0.263772	0.192253	0.634941
105	C	0.257301	0.033858	0.659976
106	C	0.22464	0.023363	0.348754
107	C	0.204197	0.488802	0.367385
108	C	0.217125	0.464412	0.362358
109	N	0.249082	0.476945	0.674716
110	N	0.267849	0.009081	0.658537
111	N	0.1741	0.481263	0.390449
112	H	0.166687	0.499026	0.393978
113	H	0.160552	0.459308	0.407073
114	H	0.216491	0.041463	0.354107
115	N	0.198376	0.429235	0.374439
116	H	0.173437	0.419761	0.382032
117	N	0.280242	0.066832	0.64293
118	H	0.303854	0.070756	0.635044
119	C	0.462213	0.22265	0.659969
120	C	0.472715	0.200488	0.34874
121	C	0.007279	0.214605	0.367365
122	C	0.031662	0.251925	0.362344
123	N	0.019129	0.271347	0.674699
124	N	0.486992	0.257974	0.65852
125	N	0.014836	0.192064	0.390442
126	H	0.996977	0.166935	0.39421
127	H	0.036669	0.200563	0.407342
128	H	0.454638	0.174225	0.354054
129	N	0.066843	0.268346	0.374413
130	H	0.076314	0.252873	0.381982
131	N	0.429245	0.212611	0.642896
132	H	0.425331	0.232299	0.634978
133	C	0.12798	0.317946	0.04443
134	N	0.150783	0.353789	0.710829
135	C	0.186834	0.368096	0.711091
136	N	0.199878	0.345296	0.710832
137	C	0.178137	0.309245	0.711105
138	N	0.142293	0.296204	0.710832
139	C	0.210161	0.405203	0.707599
140	C	0.191913	0.285919	0.707599
141	C	0.090876	0.304162	0.707586
142	O	0.167768	0.250605	0.703455
143	O	0.079707	0.328306	0.703436
144	O	0.245471	0.416368	0.703426
145	C	0.365716	0.172277	0.964679
146	N	0.337991	0.138133	0.631748
147	C	0.303406	0.130364	0.631379
148	N	0.296985	0.158086	0.631718
149	C	0.323803	0.192668	0.631326
150	N	0.357949	0.199093	0.631698
151	C	0.274974	0.095198	0.637055
152	C	0.31709	0.221117	0.636975
153	C	0.400873	0.178982	0.637032
154	O	0.346108	0.254374	0.637763
155	O	0.405096	0.149956	0.637886
156	O	0.241712	0.090947	0.637832
157	C	0.273429	0.238796	0.993245
158	C	0.295594	0.271448	0.682033
159	C	0.281473	0.291878	0.700701
160	C	0.24415	0.278936	0.695713
161	N	0.224729	0.246992	0.008044
162	N	0.238101	0.228239	0.99183
163	N	0.304032	0.321986	0.723751
164	H	0.329147	0.329263	0.72749
165	H	0.295523	0.335318	0.740685
166	H	0.321857	0.279639	0.68732
167	N	0.227729	0.297701	0.707762
168	H	0.243209	0.322646	0.715328
169	N	0.283461	0.215861	0.976172
170	H	0.263772	0.192253	0.968277
171	C	0.257301	0.033858	0.993312
172	C	0.22464	0.023363	0.682086
173	C	0.204197	0.488802	0.700717
174	C	0.217125	0.464412	0.69569
175	N	0.249082	0.476945	0.008049
176	N	0.267849	0.009081	0.99187
177	N	0.1741	0.481263	0.723781
178	H	0.166687	0.499026	0.72731
179	H	0.160552	0.459308	0.740406
180	H	0.216491	0.041463	0.687439
181	N	0.198376	0.429235	0.707772
182	H	0.173437	0.419761	0.715365
183	N	0.280242	0.066832	0.976265
184	H	0.303854	0.070756	0.968377
185	C	0.462213	0.22265	0.993302
186	C	0.472715	0.200488	0.682076
187	C	0.007279	0.214605	0.700698
188	C	0.031662	0.251925	0.695677
189	N	0.019129	0.271347	0.008035
190	N	0.486992	0.257974	0.991856
191	N	0.014836	0.192064	0.723778
192	H	0.996977	0.166935	0.727543
193	H	0.036669	0.200563	0.740675
194	H	0.454638	0.174225	0.687386
195	N	0.066843	0.268346	0.707745
196	H	0.076314	0.252873	0.715315
197	N	0.429245	0.212611	0.976232
198	H	0.425331	0.232299	0.968314
199	C	0.127979	0.817944	0.377762
200	N	0.150783	0.853787	0.044164
201	C	0.186836	0.868097	0.044426
202	N	0.199878	0.845298	0.044166
203	C	0.178136	0.809243	0.044437
204	N	0.142293	0.796205	0.044165
205	C	0.21016	0.905202	0.040931
206	C	0.191913	0.785917	0.040933
207	C	0.090877	0.804161	0.040918
208	O	0.167768	0.750606	0.036789
209	O	0.079707	0.828305	0.036769
210	O	0.245471	0.916369	0.036759
211	C	0.365717	0.672277	0.298013
212	N	0.337992	0.638133	0.965081
213	C	0.303404	0.630362	0.964715
214	N	0.296984	0.658084	0.965051
215	C	0.323803	0.692669	0.964659
216	N	0.357948	0.699093	0.965031
217	C	0.274974	0.595198	0.970387
218	C	0.317091	0.721118	0.970307
219	C	0.400872	0.678981	0.970364
220	O	0.346108	0.754374	0.971098
221	O	0.405097	0.649955	0.971218
222	O	0.241712	0.590946	0.971168
223	C	0.273429	0.738795	0.326578
224	C	0.295595	0.77145	0.015367
225	C	0.281473	0.791876	0.034035
226	C	0.244151	0.778937	0.029046
227	N	0.224728	0.74699	0.341377
228	N	0.238101	0.728239	0.325163
229	N	0.304031	0.821985	0.057085
230	H	0.329147	0.829264	0.060824
231	H	0.295522	0.835317	0.07402
232	H	0.321857	0.779637	0.020654
233	N	0.227729	0.797699	0.041096
234	H	0.243209	0.822645	0.048663
235	N	0.283461	0.715861	0.309508
236	H	0.263771	0.692252	0.30161
237	C	0.257301	0.533859	0.326644
238	C	0.224639	0.523362	0.01542
239	C	0.204197	0.988803	0.034051
240	C	0.217126	0.964414	0.029024
241	N	0.249082	0.976944	0.34138
242	N	0.267849	0.509082	0.325203
243	N	0.1741	0.981262	0.057116
244	H	0.166687	0.999028	0.060645
245	H	0.160551	0.959307	0.073739
246	H	0.21649	0.541462	0.020774
247	N	0.198378	0.929236	0.041106
248	H	0.173436	0.91976	0.048698
249	N	0.280242	0.566832	0.309598
250	H	0.303852	0.570755	0.30171
251	C	0.462213	0.722649	0.326637
252	C	0.472715	0.700488	0.015409
253	C	0.00728	0.714605	0.034032
254	C	0.031662	0.751923	0.029011
255	N	0.019128	0.771345	0.341367
256	N	0.486992	0.757973	0.325189
257	N	0.014835	0.692062	0.057111
258	H	0.996978	0.666935	0.060877
259	H	0.036668	0.700563	0.07401
260	H	0.454638	0.674225	0.02072
261	N	0.066843	0.768344	0.041079
262	H	0.076313	0.752872	0.04865
263	N	0.429246	0.712612	0.309564
264	H	0.425331	0.732298	0.301646
265	C	0.127979	0.817944	0.711095
266	N	0.150783	0.853787	0.377496
267	C	0.186836	0.868097	0.377759
268	N	0.199878	0.845298	0.3775
269	C	0.178136	0.809243	0.377769
270	N	0.142293	0.796205	0.377496
271	C	0.21016	0.905202	0.374263
272	C	0.191913	0.785917	0.374267
273	C	0.090877	0.804161	0.37425
274	O	0.167768	0.750606	0.370123
275	O	0.079707	0.828305	0.370103
276	O	0.245471	0.916369	0.370093
277	C	0.365717	0.672277	0.631346
278	N	0.337992	0.638133	0.298415
279	C	0.303404	0.630362	0.298047
280	N	0.296984	0.658084	0.298384
281	C	0.323803	0.692669	0.297992
282	N	0.357948	0.699093	0.298364
283	C	0.274974	0.595198	0.303721
284	C	0.317091	0.721118	0.30364
285	C	0.400872	0.678981	0.303698
286	O	0.346108	0.754374	0.304431
287	O	0.405097	0.649955	0.304551
288	O	0.241712	0.590946	0.304501
289	C	0.273429	0.738795	0.659913
290	C	0.295595	0.77145	0.348701
291	C	0.281473	0.791876	0.367368
292	C	0.244151	0.778937	0.362381
293	N	0.224728	0.74699	0.674709
294	N	0.238101	0.728239	0.658497
295	N	0.304031	0.821985	0.390419
296	H	0.329147	0.829264	0.394157
297	H	0.295522	0.835317	0.407352
298	H	0.321857	0.779637	0.353987
299	N	0.227729	0.797699	0.374429
300	H	0.243209	0.822645	0.381996
301	N	0.283461	0.715861	0.64284
302	H	0.263771	0.692252	0.634941
303	C	0.257301	0.533859	0.659976
304	C	0.224639	0.523362	0.348754
305	C	0.204197	0.988803	0.367385
306	C	0.217126	0.964414	0.362358
307	N	0.249082	0.976944	0.674716
308	N	0.267849	0.509082	0.658537
309	N	0.1741	0.981262	0.390449
310	H	0.166687	0.999028	0.393978
311	H	0.160551	0.959307	0.407073
312	H	0.21649	0.541462	0.354107
313	N	0.198378	0.929236	0.374439
314	H	0.173436	0.91976	0.382032
315	N	0.280242	0.566832	0.64293
316	H	0.303852	0.570755	0.635044
317	C	0.462213	0.722649	0.659969
318	C	0.472715	0.700488	0.34874
319	C	0.00728	0.714605	0.367365
320	C	0.031662	0.751923	0.362344
321	N	0.019128	0.771345	0.674699
322	N	0.486992	0.757973	0.65852
323	N	0.014835	0.692062	0.390442
324	H	0.996978	0.666935	0.39421
325	H	0.036668	0.700563	0.407342
326	H	0.454638	0.674225	0.354054
327	N	0.066843	0.768344	0.374413
328	H	0.076313	0.752872	0.381982
329	N	0.429246	0.712612	0.642896
330	H	0.425331	0.732298	0.634978
331	C	0.127979	0.817944	0.04443
332	N	0.150783	0.853787	0.710829
333	C	0.186836	0.868097	0.711091
334	N	0.199878	0.845298	0.710832
335	C	0.178136	0.809243	0.711105
336	N	0.142293	0.796205	0.710832
337	C	0.21016	0.905202	0.707599
338	C	0.191913	0.785917	0.707599
339	C	0.090877	0.804161	0.707586
340	O	0.167768	0.750606	0.703455
341	O	0.079707	0.828305	0.703436
342	O	0.245471	0.916369	0.703426
343	C	0.365717	0.672277	0.964679
344	N	0.337992	0.638133	0.631748
345	C	0.303404	0.630362	0.631379
346	N	0.296984	0.658084	0.631718
347	C	0.323803	0.692669	0.631326
348	N	0.357948	0.699093	0.631698
349	C	0.274974	0.595198	0.637055
350	C	0.317091	0.721118	0.636975
351	C	0.400872	0.678981	0.637032
352	O	0.346108	0.754374	0.637763
353	O	0.405097	0.649955	0.637886
354	O	0.241712	0.590946	0.637832
355	C	0.273429	0.738795	0.993245
356	C	0.295595	0.77145	0.682033
357	C	0.281473	0.791876	0.700701
358	C	0.244151	0.778937	0.695713
359	N	0.224728	0.74699	0.008044
360	N	0.238101	0.728239	0.99183
361	N	0.304031	0.821985	0.723751
362	H	0.329147	0.829264	0.72749
363	H	0.295522	0.835317	0.740685
364	H	0.321857	0.779637	0.68732
365	N	0.227729	0.797699	0.707762
366	H	0.243209	0.822645	0.715328
367	N	0.283461	0.715861	0.976172
368	H	0.263771	0.692252	0.968277
369	C	0.257301	0.533859	0.993312
370	C	0.224639	0.523362	0.682086
371	C	0.204197	0.988803	0.700717
372	C	0.217126	0.964414	0.69569
373	N	0.249082	0.976944	0.008049
374	N	0.267849	0.509082	0.99187
375	N	0.1741	0.981262	0.723781
376	H	0.166687	0.999028	0.72731
377	H	0.160551	0.959307	0.740406
378	H	0.21649	0.541462	0.687439
379	N	0.198378	0.929236	0.707772
380	H	0.173436	0.91976	0.715365
381	N	0.280242	0.566832	0.976265
382	H	0.303852	0.570755	0.968377
383	C	0.462213	0.722649	0.993302
384	C	0.472715	0.700488	0.682076
385	C	0.00728	0.714605	0.700698
386	C	0.031662	0.751923	0.695677
387	N	0.019128	0.771345	0.008035
388	N	0.486992	0.757973	0.991856
389	N	0.014835	0.692062	0.723778
390	H	0.996978	0.666935	0.727543
391	H	0.036668	0.700563	0.740675
392	H	0.454638	0.674225	0.687386
393	N	0.066843	0.768344	0.707745
394	H	0.076313	0.752872	0.715315
395	N	0.429246	0.712612	0.976232
396	H	0.425331	0.732298	0.968314
397	C	0.62798	0.317946	0.377762
398	N	0.650783	0.353789	0.044164
399	C	0.686834	0.368096	0.044426
400	N	0.699878	0.345296	0.044166
401	C	0.678137	0.309245	0.044437
402	N	0.642293	0.296204	0.044165
403	C	0.710162	0.405203	0.040931
404	C	0.691913	0.285919	0.040933
405	C	0.590876	0.304162	0.040918
406	O	0.667767	0.250605	0.036789
407	O	0.579706	0.328306	0.036769
408	O	0.745471	0.416368	0.036759
409	C	0.865716	0.172277	0.298013
410	N	0.837991	0.138133	0.965081
411	C	0.803406	0.130364	0.964715
412	N	0.796985	0.158086	0.965051
413	C	0.823804	0.192668	0.964659
414	N	0.857949	0.199093	0.965031
415	C	0.774974	0.095198	0.970387
416	C	0.817089	0.221117	0.970307
417	C	0.900873	0.178982	0.970364
418	O	0.846108	0.254374	0.971098
419	O	0.905096	0.149956	0.971218
420	O	0.741712	0.090947	0.971168
421	C	0.773429	0.238796	0.326578
422	C	0.795595	0.271448	0.015367
423	C	0.781473	0.291878	0.034035
424	C	0.744151	0.278936	0.029046
425	N	0.724728	0.246992	0.341377
426	N	0.7381	0.228239	0.325163
427	N	0.804032	0.321986	0.057085
428	H	0.829147	0.329263	0.060824
429	H	0.795523	0.335318	0.07402
430	H	0.821858	0.279639	0.020654
431	N	0.727729	0.297701	0.041096
432	H	0.743208	0.322646	0.048663
433	N	0.783461	0.215861	0.309508
434	H	0.763773	0.192253	0.30161
435	C	0.757301	0.033858	0.326644
436	C	0.724639	0.023363	0.01542
437	C	0.704196	0.488802	0.034051
438	C	0.717124	0.464412	0.029024
439	N	0.749081	0.476945	0.34138
440	N	0.767849	0.009081	0.325203
441	N	0.674099	0.481263	0.057116
442	H	0.666686	0.499026	0.060645
443	H	0.660551	0.459308	0.073739
444	H	0.716491	0.041463	0.020774
445	N	0.698376	0.429235	0.041105
446	H	0.673436	0.419761	0.048698
447	N	0.780242	0.066832	0.309598
448	H	0.803854	0.070756	0.30171
449	C	0.962213	0.22265	0.326637
450	C	0.972715	0.200488	0.015409
451	C	0.507279	0.214605	0.034032
452	C	0.531661	0.251925	0.029011
453	N	0.519128	0.271347	0.341367
454	N	0.986992	0.257974	0.325189
455	N	0.514837	0.192064	0.057111
456	H	0.496977	0.166935	0.060877
457	H	0.53667	0.200563	0.07401
458	H	0.954638	0.174225	0.02072
459	N	0.566842	0.268346	0.041079
460	H	0.576315	0.252873	0.04865
461	N	0.929245	0.212611	0.309564
462	H	0.925331	0.232299	0.301646
463	C	0.62798	0.317946	0.711095
464	N	0.650783	0.353789	0.377496
465	C	0.686834	0.368096	0.377759
466	N	0.699878	0.345296	0.3775
467	C	0.678137	0.309245	0.377769
468	N	0.642293	0.296204	0.377496
469	C	0.710162	0.405203	0.374263
470	C	0.691913	0.285919	0.374267
471	C	0.590876	0.304162	0.37425
472	O	0.667767	0.250605	0.370123
473	O	0.579706	0.328306	0.370103
474	O	0.745471	0.416368	0.370093
475	C	0.865716	0.172277	0.631346
476	N	0.837991	0.138133	0.298415
477	C	0.803406	0.130364	0.298047
478	N	0.796985	0.158086	0.298384
479	C	0.823804	0.192668	0.297992
480	N	0.857949	0.199093	0.298364
481	C	0.774974	0.095198	0.303721
482	C	0.817089	0.221117	0.30364
483	C	0.900873	0.178982	0.303698
484	O	0.846108	0.254374	0.304431
485	O	0.905096	0.149956	0.304551
486	O	0.741712	0.090947	0.304501
487	C	0.773429	0.238796	0.659913
488	C	0.795595	0.271448	0.348701
489	C	0.781473	0.291878	0.367368
490	C	0.744151	0.278936	0.362381
491	N	0.724728	0.246992	0.674709
492	N	0.7381	0.228239	0.658497
493	N	0.804032	0.321986	0.390419
494	H	0.829147	0.329263	0.394157
495	H	0.795523	0.335318	0.407352
496	H	0.821858	0.279639	0.353987
497	N	0.727729	0.297701	0.374429
498	H	0.743208	0.322646	0.381996
499	N	0.783461	0.215861	0.64284
500	H	0.763773	0.192253	0.634941
501	C	0.757301	0.033858	0.659976
502	C	0.724639	0.023363	0.348754
503	C	0.704196	0.488802	0.367385
504	C	0.717124	0.464412	0.362358
505	N	0.749081	0.476945	0.674716
506	N	0.767849	0.009081	0.658537
507	N	0.674099	0.481263	0.390449
508	H	0.666686	0.499026	0.393978
509	H	0.660551	0.459308	0.407073
510	H	0.716491	0.041463	0.354107
511	N	0.698376	0.429235	0.374439
512	H	0.673436	0.419761	0.382032
513	N	0.780242	0.066832	0.64293
514	H	0.803854	0.070756	0.635044
515	C	0.962213	0.22265	0.659969
516	C	0.972715	0.200488	0.34874
517	C	0.507279	0.214605	0.367365
518	C	0.531661	0.251925	0.362344
519	N	0.519128	0.271347	0.674699
520	N	0.986992	0.257974	0.65852
521	N	0.514837	0.192064	0.390442
522	H	0.496977	0.166935	0.39421
523	H	0.53667	0.200563	0.407342
524	H	0.954638	0.174225	0.354054
525	N	0.566842	0.268346	0.374413
526	H	0.576315	0.252873	0.381982
527	N	0.929245	0.212611	0.642896
528	H	0.925331	0.232299	0.634978
529	C	0.62798	0.317946	0.04443
530	N	0.650783	0.353789	0.710829
531	C	0.686834	0.368096	0.711091
532	N	0.699878	0.345296	0.710832
533	C	0.678137	0.309245	0.711105
534	N	0.642293	0.296204	0.710832
535	C	0.710162	0.405203	0.707599
536	C	0.691913	0.285919	0.707599
537	C	0.590876	0.304162	0.707586
538	O	0.667767	0.250605	0.703455
539	O	0.579706	0.328306	0.703436
540	O	0.745471	0.416368	0.703426
541	C	0.865716	0.172277	0.964679
542	N	0.837991	0.138133	0.631748
543	C	0.803406	0.130364	0.631379
544	N	0.796985	0.158086	0.631718
545	C	0.823804	0.192668	0.631326
546	N	0.857949	0.199093	0.631698
547	C	0.774974	0.095198	0.637055
548	C	0.817089	0.221117	0.636975
549	C	0.900873	0.178982	0.637032
550	O	0.846108	0.254374	0.637763
551	O	0.905096	0.149956	0.637886
552	O	0.741712	0.090947	0.637832
553	C	0.773429	0.238796	0.993245
554	C	0.795595	0.271448	0.682033
555	C	0.781473	0.291878	0.700701
556	C	0.744151	0.278936	0.695713
557	N	0.724728	0.246992	0.008044
558	N	0.7381	0.228239	0.99183
559	N	0.804032	0.321986	0.723751
560	H	0.829147	0.329263	0.72749
561	H	0.795523	0.335318	0.740685
562	H	0.821858	0.279639	0.68732
563	N	0.727729	0.297701	0.707762
564	H	0.743208	0.322646	0.715328
565	N	0.783461	0.215861	0.976172
566	H	0.763773	0.192253	0.968277
567	C	0.757301	0.033858	0.993312
568	C	0.724639	0.023363	0.682086
569	C	0.704196	0.488802	0.700717
570	C	0.717124	0.464412	0.69569
571	N	0.749081	0.476945	0.008049
572	N	0.767849	0.009081	0.99187
573	N	0.674099	0.481263	0.723781
574	H	0.666686	0.499026	0.72731
575	H	0.660551	0.459308	0.740406
576	H	0.716491	0.041463	0.687439
577	N	0.698376	0.429235	0.707772
578	H	0.673436	0.419761	0.715365
579	N	0.780242	0.066832	0.976265
580	H	0.803854	0.070756	0.968377
581	C	0.962213	0.22265	0.993302
582	C	0.972715	0.200488	0.682076
583	C	0.507279	0.214605	0.700698
584	C	0.531661	0.251925	0.695677
585	N	0.519128	0.271347	0.008035
586	N	0.986992	0.257974	0.991856
587	N	0.514837	0.192064	0.723778
588	H	0.496977	0.166935	0.727543
589	H	0.53667	0.200563	0.740675
590	H	0.954638	0.174225	0.687386
591	N	0.566842	0.268346	0.707745
592	H	0.576315	0.252873	0.715315
593	N	0.929245	0.212611	0.976232
594	H	0.925331	0.232299	0.968314
595	C	0.627979	0.817944	0.377762
596	N	0.650782	0.853787	0.044164
597	C	0.686834	0.868097	0.044426
598	N	0.699877	0.845298	0.044166
599	C	0.678136	0.809243	0.044437
600	N	0.642293	0.796205	0.044165
601	C	0.71016	0.905202	0.040931
602	C	0.691913	0.785917	0.040933
603	C	0.590876	0.804161	0.040918
604	O	0.667768	0.750606	0.036789
605	O	0.579706	0.828305	0.036769
606	O	0.745471	0.916369	0.036759
607	C	0.865717	0.672277	0.298013
608	N	0.837993	0.638133	0.965081
609	C	0.803404	0.630362	0.964715
610	N	0.796983	0.658084	0.965051
611	C	0.823803	0.692669	0.964659
612	N	0.857947	0.699093	0.965031
613	C	0.774975	0.595198	0.970387
614	C	0.81709	0.721118	0.970307
615	C	0.900871	0.678981	0.970364
616	O	0.846107	0.754374	0.971098
617	O	0.905097	0.649955	0.971218
618	O	0.741711	0.590946	0.971168
619	C	0.773428	0.738795	0.326578
620	C	0.795594	0.77145	0.015367
621	C	0.781473	0.791876	0.034035
622	C	0.74415	0.778937	0.029046
623	N	0.724728	0.74699	0.341377
624	N	0.738102	0.728239	0.325163
625	N	0.80403	0.821985	0.057085
626	H	0.829148	0.829264	0.060824
627	H	0.795522	0.835317	0.07402
628	H	0.821856	0.779637	0.020654
629	N	0.72773	0.797699	0.041096
630	H	0.743209	0.822645	0.048663
631	N	0.78346	0.715861	0.309508
632	H	0.763771	0.692252	0.30161
633	C	0.7573	0.533859	0.326644
634	C	0.724639	0.523362	0.01542
635	C	0.704197	0.988803	0.034051
636	C	0.717126	0.964414	0.029024
637	N	0.749082	0.976944	0.34138
638	N	0.767848	0.509082	0.325203
639	N	0.6741	0.981262	0.057116
640	H	0.666688	0.999028	0.060645
641	H	0.660551	0.959307	0.073739
642	H	0.716489	0.541462	0.020774
643	N	0.698378	0.929236	0.041106
644	H	0.673436	0.91976	0.048698
645	N	0.780241	0.566832	0.309598
646	H	0.803852	0.570755	0.30171
647	C	0.962212	0.722649	0.326637
648	C	0.972714	0.700488	0.015409
649	C	0.507279	0.714605	0.034032
650	C	0.531662	0.751923	0.029011
651	N	0.519128	0.771345	0.341367
652	N	0.986993	0.757973	0.325189
653	N	0.514835	0.692062	0.057111
654	H	0.496978	0.666935	0.060877
655	H	0.536669	0.700563	0.07401
656	H	0.954637	0.674225	0.02072
657	N	0.566842	0.768344	0.041079
658	H	0.576314	0.752872	0.04865
659	N	0.929246	0.712612	0.309564
660	H	0.925331	0.732298	0.301646
661	C	0.627979	0.817944	0.711095
662	N	0.650782	0.853787	0.377496
663	C	0.686834	0.868097	0.377759
664	N	0.699877	0.845298	0.3775
665	C	0.678136	0.809243	0.377769
666	N	0.642293	0.796205	0.377496
667	C	0.71016	0.905202	0.374263
668	C	0.691913	0.785917	0.374267
669	C	0.590876	0.804161	0.37425
670	O	0.667768	0.750606	0.370123
671	O	0.579706	0.828305	0.370103
672	O	0.745471	0.916369	0.370093
673	C	0.865717	0.672277	0.631346
674	N	0.837993	0.638133	0.298415
675	C	0.803404	0.630362	0.298047
676	N	0.796983	0.658084	0.298384
677	C	0.823803	0.692669	0.297992
678	N	0.857947	0.699093	0.298364
679	C	0.774975	0.595198	0.303721
680	C	0.81709	0.721118	0.30364
681	C	0.900871	0.678981	0.303698
682	O	0.846107	0.754374	0.304431
683	O	0.905097	0.649955	0.304551
684	O	0.741711	0.590946	0.304501
685	C	0.773428	0.738795	0.659913
686	C	0.795594	0.77145	0.348701
687	C	0.781473	0.791876	0.367368
688	C	0.74415	0.778937	0.362381
689	N	0.724728	0.74699	0.674709
690	N	0.738102	0.728239	0.658497
691	N	0.80403	0.821985	0.390419
692	H	0.829148	0.829264	0.394157
693	H	0.795522	0.835317	0.407352
694	H	0.821856	0.779637	0.353987
695	N	0.72773	0.797699	0.374429
696	H	0.743209	0.822645	0.381996
697	N	0.78346	0.715861	0.64284
698	H	0.763771	0.692252	0.634941
699	C	0.7573	0.533859	0.659976
700	C	0.724639	0.523362	0.348754
701	C	0.704197	0.988803	0.367385
702	C	0.717126	0.964414	0.362358
703	N	0.749082	0.976944	0.674716
704	N	0.767848	0.509082	0.658537
705	N	0.6741	0.981262	0.390449
706	H	0.666688	0.999028	0.393978
707	H	0.660551	0.959307	0.407073
708	H	0.716489	0.541462	0.354107
709	N	0.698378	0.929236	0.374439
710	H	0.673436	0.91976	0.382032
711	N	0.780241	0.566832	0.64293
712	H	0.803852	0.570755	0.635044
713	C	0.962212	0.722649	0.659969
714	C	0.972714	0.700488	0.34874
715	C	0.507279	0.714605	0.367365
716	C	0.531662	0.751923	0.362344
717	N	0.519128	0.771345	0.674699
718	N	0.986993	0.757973	0.65852
719	N	0.514835	0.692062	0.390442
720	H	0.496978	0.666935	0.39421
721	H	0.536669	0.700563	0.407342
722	H	0.954637	0.674225	0.354054
723	N	0.566842	0.768344	0.374413
724	H	0.576314	0.752872	0.381982
725	N	0.929246	0.712612	0.642896
726	H	0.925331	0.732298	0.634978
727	C	0.627979	0.817944	0.04443
728	N	0.650782	0.853787	0.710829
729	C	0.686834	0.868097	0.711091
730	N	0.699877	0.845298	0.710832
731	C	0.678136	0.809243	0.711105
732	N	0.642293	0.796205	0.710832
733	C	0.71016	0.905202	0.707599
734	C	0.691913	0.785917	0.707599
735	C	0.590876	0.804161	0.707586
736	O	0.667768	0.750606	0.703455
737	O	0.579706	0.828305	0.703436
738	O	0.745471	0.916369	0.703426
739	C	0.865717	0.672277	0.964679
740	N	0.837993	0.638133	0.631748
741	C	0.803404	0.630362	0.631379
742	N	0.796983	0.658084	0.631718
743	C	0.823803	0.692669	0.631326
744	N	0.857947	0.699093	0.631698
745	C	0.774975	0.595198	0.637055
746	C	0.81709	0.721118	0.636975
747	C	0.900871	0.678981	0.637032
748	O	0.846107	0.754374	0.637763
749	O	0.905097	0.649955	0.637886
750	O	0.741711	0.590946	0.637832
751	C	0.773428	0.738795	0.993245
752	C	0.795594	0.77145	0.682033
753	C	0.781473	0.791876	0.700701
754	C	0.74415	0.778937	0.695713
755	N	0.724728	0.74699	0.008044
756	N	0.738102	0.728239	0.99183
757	N	0.80403	0.821985	0.723751
758	H	0.829148	0.829264	0.72749
759	H	0.795522	0.835317	0.740685
760	H	0.821856	0.779637	0.68732
761	N	0.72773	0.797699	0.707762
762	H	0.743209	0.822645	0.715328
763	N	0.78346	0.715861	0.976172
764	H	0.763771	0.692252	0.968277
765	C	0.7573	0.533859	0.993312
766	C	0.724639	0.523362	0.682086
767	C	0.704197	0.988803	0.700717
768	C	0.717126	0.964414	0.69569
769	N	0.749082	0.976944	0.008049
770	N	0.767848	0.509082	0.99187
771	N	0.6741	0.981262	0.723781
772	H	0.666688	0.999028	0.72731
773	H	0.660551	0.959307	0.740406
774	H	0.716489	0.541462	0.687439
775	N	0.698378	0.929236	0.707772
776	H	0.673436	0.91976	0.715365
777	N	0.780241	0.566832	0.976265
778	H	0.803852	0.570755	0.968377
779	C	0.962212	0.722649	0.993302
780	C	0.972714	0.700488	0.682076
781	C	0.507279	0.714605	0.700698
782	C	0.531662	0.751923	0.695677
783	N	0.519128	0.771345	0.008035
784	N	0.986993	0.757973	0.991856
785	N	0.514835	0.692062	0.723778
786	H	0.496978	0.666935	0.727543
787	H	0.536669	0.700563	0.740675
788	H	0.954637	0.674225	0.687386
789	N	0.566842	0.768344	0.707745
790	H	0.576314	0.752872	0.715315
791	N	0.929246	0.712612	0.976232
792	H	0.925331	0.732298	0.968314
