data_C180H102N36O24_2018-02-15_10:48:13
#******************************************
#
# CIF file created by Zeo++
# Zeo++ is an open source package to
# analyze microporous materials
#
#*******************************************

_cell_length_a		25.7263   
_cell_length_b		25.7242   
_cell_length_c		29.3968   
_cell_angle_alpha		90   
_cell_angle_beta		90   
_cell_angle_gamma		89.9701   

_symmetry_space_group_name_H-M		'P1'
_symmetry_Int_Tables_number		1
_symmetry_cell_setting		Monoclinic

loop_
_symmetry_equiv_pos_as_xyz
'+x,+y,+z'

loop_
_atom_site_label
_atom_site_type_symbol
_atom_site_fract_x
_atom_site_fract_y
_atom_site_fract_z
1	C	0.789451	0.001281	0.043766
2	C	0.734682	0.001712	0.044477
3	C	0.020068	0.789013	0.039504
4	C	0.019928	0.734244	0.039368
5	C	0.284649	0.020193	0.039185
6	C	0.229887	0.020552	0.039336
7	C	0.00091	0.229256	0.043422
8	C	0.001064	0.284031	0.044226
9	H	0.994657	0.302665	0.074506
10	H	0.994457	0.209359	0.073061
11	H	0.210734	0.029301	0.068907
12	H	0.303593	0.028593	0.068828
13	H	0.028822	0.808221	0.069043
14	H	0.02855	0.715328	0.068981
15	H	0.715957	0.99524	0.074697
16	H	0.809259	0.994525	0.073402
17	C	0.013528	0.564085	0.013634
18	C	0.00874	0.525079	0.047914
19	C	0.006474	0.472019	0.035573
20	H	0.002873	0.44501	0.061016
21	N	0.005478	0.534684	0.095258
22	C	0.017668	0.617039	0.024358
23	H	0.030636	0.62668	0.054933
24	C	0.454768	0.014032	0.013388
25	C	0.493726	0.00939	0.047728
26	C	0.546805	0.007178	0.035465
27	H	0.573776	0.003679	0.060955
28	N	0.484057	0.006226	0.095067
29	C	0.401797	0.018196	0.024046
30	H	0.392127	0.031334	0.054561
31	H	0.026769	0.305158	0.267058
32	H	0.025809	0.21215	0.265499
33	H	0.210121	0.988748	0.263154
34	H	0.303392	0.987496	0.263134
35	H	0.987365	0.808629	0.263489
36	H	0.986558	0.715355	0.263486
37	H	0.806908	0.026237	0.265891
38	H	0.713893	0.027662	0.267296
39	N	0.01647	0.479565	0.242377
40	O	0.967533	0.563226	0.105309
41	O	0.058406	0.493944	0.224428
42	O	0.979104	0.497828	0.219931
43	O	0.046747	0.553593	0.110974
44	N	0.539482	0.016887	0.242249
45	O	0.455573	0.968277	0.105152
46	O	0.525031	0.058765	0.224208
47	O	0.521363	0.979441	0.219837
48	O	0.465063	0.047517	0.110696
49	C	0.912862	0.144559	0.335464
50	C	0.874819	0.106744	0.335728
51	C	0.899018	0.058111	0.335174
52	N	0.950769	0.068377	0.33488
53	C	0.96135	0.120065	0.335178
54	C	0.010084	0.14634	0.334976
55	C	0.059194	0.120975	0.334227
56	N	0.069186	0.069321	0.333917
57	C	0.120779	0.059057	0.333335
58	C	0.145462	0.107395	0.33302
59	C	0.107633	0.145434	0.333935
60	C	0.145885	0.009794	0.332853
61	C	0.119247	0.961225	0.332785
62	N	0.067483	0.950947	0.332975
63	C	0.056862	0.899248	0.332973
64	C	0.105352	0.874766	0.332525
65	C	0.143399	0.912563	0.332833
66	C	0.008127	0.872935	0.33311
67	C	0.959028	0.898331	0.333689
68	N	0.949097	0.949991	0.334016
69	C	0.897521	0.960277	0.334883
70	C	0.872755	0.911995	0.334988
71	C	0.910557	0.873926	0.334576
72	C	0.872463	0.009534	0.335347
73	C	0.81685	0.010086	0.336147
74	C	0.705723	0.010698	0.337754
75	C	0.73334	0.019931	0.296852
76	C	0.788098	0.019439	0.296013
77	C	0.008323	0.817263	0.332905
78	C	0.00767	0.706002	0.332728
79	C	0.995702	0.734465	0.292987
80	C	0.996198	0.789247	0.292924
81	C	0.201566	0.009184	0.332696
82	C	0.229537	0.997203	0.292651
83	C	0.28432	0.996461	0.292699
84	C	0.312846	0.008111	0.332474
85	C	0.009783	0.201971	0.335748
86	C	0.018862	0.230864	0.295644
87	C	0.009857	0.313122	0.337547
88	C	0.019109	0.285623	0.29658
89	H	0.905538	0.183627	0.335559
90	H	0.835805	0.114298	0.336235
91	H	0.977087	0.041901	0.334688
92	H	0.041173	0.977432	0.332987
93	H	0.114961	0.184489	0.334106
94	H	0.184537	0.114551	0.332315
95	H	0.182401	0.904932	0.332977
96	H	0.112708	0.835709	0.332254
97	H	0.833659	0.904916	0.335538
98	H	0.903173	0.834889	0.334957
99	N	0.006302	0.654066	0.329838
100	N	0.364791	0.0067	0.329555
101	N	0.010591	0.364968	0.341252
102	N	0.653873	0.011403	0.34133
103	C	0.009169	0.455179	0.323091
104	C	0.013635	0.494061	0.288854
105	C	0.015705	0.547318	0.301153
106	H	0.019639	0.574223	0.27569
107	C	0.007067	0.402081	0.311929
108	H	0.002186	0.392281	0.279549
109	C	0.563724	0.009814	0.323005
110	C	0.524895	0.01413	0.288706
111	C	0.471614	0.016141	0.300927
112	H	0.444744	0.019985	0.275423
113	C	0.61685	0.007781	0.311934
114	H	0.626745	0.002824	0.279583
115	C	0.912862	0.144559	0.668798
116	C	0.874819	0.106744	0.66906
117	C	0.899018	0.058111	0.668506
118	N	0.950769	0.068377	0.668213
119	C	0.96135	0.120065	0.668509
120	C	0.010084	0.14634	0.668308
121	C	0.059194	0.120975	0.66756
122	N	0.069186	0.069321	0.66725
123	C	0.120779	0.059057	0.666669
124	C	0.145462	0.107395	0.666352
125	C	0.107633	0.145434	0.667267
126	C	0.145885	0.009794	0.666186
127	C	0.119247	0.961225	0.666117
128	N	0.067483	0.950947	0.666308
129	C	0.056862	0.899248	0.666305
130	C	0.105352	0.874766	0.665859
131	C	0.143399	0.912563	0.666165
132	C	0.008127	0.872935	0.666444
133	C	0.959028	0.898331	0.667022
134	N	0.949097	0.949991	0.667349
135	C	0.897521	0.960277	0.668216
136	C	0.872755	0.911995	0.668322
137	C	0.910557	0.873926	0.66791
138	C	0.872463	0.009534	0.668679
139	C	0.81685	0.010086	0.669478
140	C	0.789451	0.001281	0.377099
141	C	0.734682	0.001712	0.37781
142	C	0.705723	0.010698	0.671087
143	C	0.73334	0.019931	0.630185
144	C	0.788098	0.019439	0.629345
145	C	0.008323	0.817263	0.666237
146	C	0.020068	0.789013	0.372837
147	C	0.019928	0.734244	0.372701
148	C	0.00767	0.706002	0.666063
149	C	0.995702	0.734465	0.626321
150	C	0.996198	0.789247	0.626256
151	C	0.201566	0.009184	0.666029
152	C	0.229537	0.997203	0.625984
153	C	0.28432	0.996461	0.626031
154	C	0.312846	0.008111	0.665808
155	C	0.284649	0.020193	0.372517
156	C	0.229887	0.020552	0.37267
157	C	0.009783	0.201971	0.66908
158	C	0.018862	0.230864	0.628977
159	C	0.00091	0.229256	0.376756
160	C	0.001064	0.284031	0.377559
161	C	0.009857	0.313122	0.67088
162	C	0.019109	0.285623	0.629913
163	H	0.026769	0.305158	0.600389
164	H	0.025809	0.21215	0.598831
165	H	0.994657	0.302665	0.407837
166	H	0.994457	0.209359	0.406395
167	H	0.905538	0.183627	0.66889
168	H	0.835805	0.114298	0.669567
169	H	0.977087	0.041901	0.668022
170	H	0.041173	0.977432	0.666322
171	H	0.114961	0.184489	0.667437
172	H	0.184537	0.114551	0.665648
173	H	0.210121	0.988748	0.596487
174	H	0.303392	0.987496	0.596467
175	H	0.210734	0.029301	0.402242
176	H	0.303593	0.028593	0.40216
177	H	0.182401	0.904932	0.666311
178	H	0.112708	0.835709	0.665587
179	H	0.833659	0.904916	0.668873
180	H	0.903173	0.834889	0.668291
181	H	0.028822	0.808221	0.402378
182	H	0.02855	0.715328	0.402313
183	H	0.987365	0.808629	0.596821
184	H	0.986558	0.715355	0.596817
185	H	0.806908	0.026237	0.599226
186	H	0.713893	0.027662	0.600627
187	H	0.715957	0.99524	0.408031
188	H	0.809259	0.994525	0.406735
189	N	0.006302	0.654066	0.663172
190	N	0.364791	0.0067	0.662889
191	N	0.010591	0.364968	0.674588
192	N	0.653873	0.011403	0.674666
193	C	0.009169	0.455179	0.656423
194	C	0.013635	0.494061	0.622187
195	C	0.015705	0.547318	0.634485
196	C	0.013528	0.564085	0.346967
197	C	0.00874	0.525079	0.381246
198	H	0.019639	0.574223	0.609023
199	C	0.006474	0.472019	0.368905
200	H	0.002873	0.44501	0.39435
201	N	0.005478	0.534684	0.428591
202	N	0.01647	0.479565	0.57571
203	O	0.967533	0.563226	0.438643
204	O	0.058406	0.493944	0.557762
205	O	0.979104	0.497828	0.553265
206	O	0.046747	0.553593	0.444307
207	C	0.007067	0.402081	0.645261
208	H	0.002186	0.392281	0.61288
209	C	0.017668	0.617039	0.357692
210	H	0.030636	0.62668	0.388267
211	C	0.563724	0.009814	0.656338
212	C	0.524895	0.01413	0.622038
213	C	0.471614	0.016141	0.63426
214	C	0.454768	0.014032	0.346722
215	C	0.493726	0.00939	0.381062
216	H	0.444744	0.019985	0.608757
217	C	0.546805	0.007178	0.368799
218	H	0.573776	0.003679	0.394288
219	N	0.484057	0.006226	0.428401
220	N	0.539482	0.016887	0.575584
221	O	0.455573	0.968277	0.438487
222	O	0.525031	0.058765	0.557541
223	O	0.521363	0.979441	0.55317
224	O	0.465063	0.047517	0.444028
225	C	0.61685	0.007781	0.645268
226	H	0.626745	0.002824	0.612918
227	C	0.401797	0.018196	0.357379
228	H	0.392127	0.031334	0.387893
229	C	0.912862	0.144559	0.002131
230	C	0.874819	0.106744	0.002396
231	C	0.899018	0.058111	0.001841
232	N	0.950769	0.068377	0.001546
233	C	0.96135	0.120065	0.001845
234	C	0.010084	0.14634	0.001641
235	C	0.059194	0.120975	0.000892
236	N	0.069186	0.069321	0.000583
237	C	0.120779	0.059057	1e-06
238	C	0.145462	0.107395	0.999685
239	C	0.107633	0.145434	0.0006
240	C	0.145885	0.009794	0.999518
241	C	0.119247	0.961225	0.99945
242	N	0.067483	0.950947	0.999641
243	C	0.056862	0.899248	0.999641
244	C	0.105352	0.874766	0.999192
245	C	0.143399	0.912563	0.999498
246	C	0.008127	0.872935	0.999777
247	C	0.959028	0.898331	0.000355
248	N	0.949097	0.949991	0.000682
249	C	0.897521	0.960277	0.001549
250	C	0.872755	0.911995	0.001654
251	C	0.910557	0.873926	0.001243
252	C	0.872463	0.009534	0.002012
253	C	0.81685	0.010086	0.002814
254	C	0.789451	0.001281	0.710432
255	C	0.734682	0.001712	0.711143
256	C	0.705723	0.010698	0.00442
257	C	0.73334	0.019931	0.963518
258	C	0.788098	0.019439	0.962677
259	C	0.008323	0.817263	0.999569
260	C	0.020068	0.789013	0.70617
261	C	0.019928	0.734244	0.706033
262	C	0.00767	0.706002	0.999396
263	C	0.995702	0.734465	0.959653
264	C	0.996198	0.789247	0.959592
265	C	0.201566	0.009184	0.999362
266	C	0.229537	0.997203	0.959316
267	C	0.28432	0.996461	0.959364
268	C	0.312846	0.008111	0.999141
269	C	0.284649	0.020193	0.70585
270	C	0.229887	0.020552	0.706003
271	C	0.009783	0.201971	0.002413
272	C	0.018862	0.230864	0.96231
273	C	0.00091	0.229256	0.710088
274	C	0.001064	0.284031	0.710891
275	C	0.009857	0.313122	0.004213
276	C	0.019109	0.285623	0.963245
277	H	0.026769	0.305158	0.933722
278	H	0.025809	0.21215	0.932164
279	H	0.994657	0.302665	0.74117
280	H	0.994457	0.209359	0.739728
281	H	0.905538	0.183627	0.002226
282	H	0.835805	0.114298	0.002899
283	H	0.977087	0.041901	0.001355
284	H	0.041173	0.977432	0.999654
285	H	0.114961	0.184489	0.000773
286	H	0.184537	0.114551	0.998981
287	H	0.210121	0.988748	0.92982
288	H	0.303392	0.987496	0.9298
289	H	0.210734	0.029301	0.735574
290	H	0.303593	0.028593	0.735492
291	H	0.182401	0.904932	0.999644
292	H	0.112708	0.835709	0.998919
293	H	0.833659	0.904916	0.002205
294	H	0.903173	0.834889	0.001624
295	H	0.028822	0.808221	0.73571
296	H	0.02855	0.715328	0.735649
297	H	0.987365	0.808629	0.930153
298	H	0.986558	0.715355	0.930153
299	H	0.806908	0.026237	0.932558
300	H	0.713893	0.027662	0.93396
301	H	0.715957	0.99524	0.741364
302	H	0.809259	0.994525	0.740068
303	N	0.006302	0.654066	0.996504
304	N	0.364791	0.0067	0.996222
305	N	0.010591	0.364968	0.00792
306	N	0.653873	0.011403	0.007999
307	C	0.009169	0.455179	0.989755
308	C	0.013635	0.494061	0.95552
309	C	0.015705	0.547318	0.967817
310	C	0.013528	0.564085	0.680299
311	C	0.00874	0.525079	0.714579
312	H	0.019639	0.574223	0.942355
313	C	0.006474	0.472019	0.702237
314	H	0.002873	0.44501	0.727682
315	N	0.005478	0.534684	0.761924
316	N	0.01647	0.479565	0.909042
317	O	0.967533	0.563226	0.771976
318	O	0.058406	0.493944	0.891095
319	O	0.979104	0.497828	0.886598
320	O	0.046747	0.553593	0.77764
321	C	0.007067	0.402081	0.978594
322	H	0.002186	0.392281	0.946216
323	C	0.017668	0.617039	0.691025
324	H	0.030636	0.62668	0.7216
325	C	0.563724	0.009814	0.98967
326	C	0.524895	0.01413	0.955374
327	C	0.471614	0.016141	0.967593
328	C	0.454768	0.014032	0.680054
329	C	0.493726	0.00939	0.714395
330	H	0.444744	0.019985	0.94209
331	C	0.546805	0.007178	0.702132
332	H	0.573776	0.003679	0.727621
333	N	0.484057	0.006226	0.761733
334	N	0.539482	0.016887	0.908916
335	O	0.455573	0.968277	0.77182
336	O	0.525031	0.058765	0.890874
337	O	0.521363	0.979441	0.886502
338	O	0.465063	0.047517	0.777361
339	C	0.61685	0.007781	0.978601
340	H	0.626745	0.002824	0.94625
341	C	0.401797	0.018196	0.690712
342	H	0.392127	0.031334	0.721226
