data_C432H360_2018-02-15_10:40:24
#******************************************
#
# CIF file created by Zeo++
# Zeo++ is an open source package to
# analyze microporous materials
#
#*******************************************

_cell_length_a		29.8536   
_cell_length_b		29.8536   
_cell_length_c		29.8632   
_cell_angle_alpha		90   
_cell_angle_beta		90   
_cell_angle_gamma		120   

_symmetry_space_group_name_H-M		'P1'
_symmetry_Int_Tables_number		1
_symmetry_cell_setting		Monoclinic

loop_
_symmetry_equiv_pos_as_xyz
'+x,+y,+z'

loop_
_atom_site_label
_atom_site_type_symbol
_atom_site_fract_x
_atom_site_fract_y
_atom_site_fract_z
1	C	0.027878	0.294917	0.03304
2	C	0.033254	0.23663	0.312785
3	H	0.022755	0.316368	0.100332
4	C	0.027878	0.294917	0.366374
5	C	0.033254	0.23663	0.646117
6	H	0.022755	0.316368	0.433665
7	C	0.027878	0.294917	0.699705
8	C	0.033254	0.23663	0.97945
9	H	0.022755	0.316368	0.766998
10	C	0.027879	0.794919	0.03304
11	C	0.033253	0.73663	0.312785
12	H	0.022752	0.816366	0.100332
13	C	0.027879	0.794919	0.366374
14	C	0.033253	0.73663	0.646117
15	H	0.022752	0.816366	0.433665
16	C	0.027879	0.794919	0.699705
17	C	0.033253	0.73663	0.97945
18	H	0.022752	0.816366	0.766998
19	H	0.054877	0.226927	0.292628
20	C	0.04745	0.332639	0.070913
21	H	0.047353	0.36781	0.061138
22	H	0.054877	0.226927	0.625962
23	C	0.04745	0.332639	0.404247
24	H	0.047353	0.36781	0.394469
25	H	0.054877	0.226927	0.959295
26	C	0.04745	0.332639	0.737581
27	H	0.047353	0.36781	0.727803
28	H	0.054876	0.726925	0.292628
29	C	0.047449	0.832638	0.070913
30	H	0.047351	0.867809	0.061138
31	H	0.054876	0.726925	0.625962
32	C	0.047449	0.832638	0.404247
33	H	0.047351	0.867809	0.394469
34	H	0.054876	0.726925	0.959295
35	C	0.047449	0.832638	0.737581
36	H	0.047351	0.867809	0.727803
37	C	0.059179	0.279969	0.008255
38	C	0.059179	0.279969	0.341588
39	C	0.059179	0.279969	0.674922
40	C	0.059179	0.779969	0.008255
41	C	0.059179	0.779969	0.341588
42	C	0.059179	0.779969	0.674922
43	C	0.11444	0.30767	0.008695
44	C	0.143007	0.362455	0.007915
45	C	0.197816	0.391286	0.008687
46	C	0.224033	0.362718	0.007906
47	C	0.198056	0.307909	0.008697
48	C	0.143271	0.281693	0.007911
49	H	0.263556	0.382621	0.007073
50	H	0.123651	0.242169	0.007096
51	H	0.123103	0.382075	0.007091
52	C	0.392435	0.196923	0.997339
53	C	0.363881	0.142138	0.998116
54	C	0.309072	0.113293	0.997345
55	C	0.282841	0.141848	0.998132
56	C	0.308805	0.196656	0.997342
57	C	0.36359	0.222886	0.998129
58	H	0.243318	0.121935	0.998956
59	H	0.383199	0.262409	0.998949
60	H	0.383794	0.122528	0.998939
61	C	0.225739	0.280332	0.008224
62	C	0.210814	0.234109	0.033042
63	C	0.23775	0.206788	0.026583
64	C	0.281103	0.224214	0.331127
65	C	0.295976	0.270396	0.306254
66	H	0.228075	0.175474	0.046749
67	C	0.269097	0.297763	0.312776
68	H	0.278798	0.329086	0.292615
69	C	0.333788	0.288593	0.268452
70	H	0.344001	0.259973	0.257742
71	H	0.368944	0.323843	0.278292
72	H	0.317584	0.297071	0.239017
73	C	0.173099	0.21597	0.070921
74	H	0.162886	0.244593	0.081623
75	H	0.18938	0.207563	0.100343
76	H	0.137929	0.180693	0.061157
77	C	0.22539	0.446547	0.008219
78	C	0.271622	0.477846	0.033028
79	C	0.298943	0.032103	0.026567
80	C	0.281522	0.058032	0.331108
81	C	0.235322	0.026723	0.306257
82	H	0.330261	0.053741	0.046729
83	C	0.207955	0.472477	0.31278
84	H	0.176623	0.450855	0.292627
85	C	0.217114	0.046339	0.268463
86	H	0.245736	0.08517	0.257747
87	H	0.181872	0.046252	0.278316
88	H	0.208622	0.021654	0.239029
89	C	0.289767	0.45827	0.070903
90	H	0.261143	0.419437	0.08161
91	H	0.298185	0.482963	0.100323
92	H	0.325038	0.458371	0.061131
93	C	0.473623	0.267984	0.026572
94	C	0.447695	0.224637	0.331109
95	C	0.47901	0.209754	0.306253
96	H	0.451982	0.277665	0.046731
97	C	0.459398	0.171945	0.26845
98	H	0.420569	0.161737	0.257733
99	H	0.459489	0.136787	0.278291
100	H	0.484088	0.18815	0.239019
101	H	0.086283	0.342847	0.081623
102	C	0.11444	0.30767	0.342027
103	C	0.143007	0.362455	0.34125
104	C	0.197816	0.391286	0.34202
105	C	0.224033	0.362718	0.34124
106	C	0.198056	0.307909	0.34203
107	C	0.143271	0.281693	0.341243
108	H	0.263556	0.382621	0.340406
109	H	0.123651	0.242169	0.340429
110	H	0.123103	0.382075	0.340426
111	C	0.392435	0.196923	0.330672
112	C	0.363881	0.142138	0.33145
113	C	0.309072	0.113293	0.33068
114	C	0.282841	0.141848	0.331467
115	C	0.308805	0.196656	0.330677
116	C	0.36359	0.222886	0.331464
117	H	0.243318	0.121935	0.332292
118	H	0.383199	0.262409	0.332284
119	H	0.383794	0.122528	0.332272
120	C	0.225739	0.280332	0.341558
121	C	0.210814	0.234109	0.366374
122	C	0.23775	0.206788	0.359915
123	C	0.281103	0.224214	0.66446
124	C	0.295976	0.270396	0.639587
125	H	0.228075	0.175474	0.38008
126	C	0.269097	0.297763	0.64611
127	H	0.278798	0.329086	0.625948
128	C	0.333788	0.288593	0.601785
129	H	0.344001	0.259973	0.591076
130	H	0.368944	0.323843	0.611626
131	H	0.317584	0.297071	0.57235
132	C	0.173099	0.21597	0.404254
133	H	0.162886	0.244593	0.414956
134	H	0.18938	0.207563	0.433675
135	H	0.137929	0.180693	0.394489
136	C	0.22539	0.446547	0.341551
137	C	0.271622	0.477846	0.366361
138	C	0.298943	0.032103	0.359901
139	C	0.281522	0.058032	0.66444
140	C	0.235322	0.026723	0.63959
141	H	0.330261	0.053741	0.380063
142	C	0.207955	0.472477	0.646113
143	H	0.176623	0.450855	0.625962
144	C	0.217114	0.046339	0.601798
145	H	0.245736	0.08517	0.591079
146	H	0.181872	0.046252	0.61165
147	H	0.208622	0.021654	0.572364
148	C	0.289767	0.45827	0.404237
149	H	0.261143	0.419437	0.414942
150	H	0.298185	0.482963	0.433658
151	H	0.325038	0.458371	0.394466
152	C	0.473623	0.267984	0.359905
153	C	0.447695	0.224637	0.664444
154	C	0.47901	0.209754	0.639587
155	H	0.451982	0.277665	0.380063
156	C	0.459398	0.171945	0.601781
157	H	0.420569	0.161737	0.591066
158	H	0.459489	0.136787	0.611623
159	H	0.484088	0.18815	0.572354
160	H	0.086283	0.342847	0.414956
161	C	0.11444	0.30767	0.67536
162	C	0.143007	0.362455	0.67458
163	C	0.197816	0.391286	0.675353
164	C	0.224033	0.362718	0.674573
165	C	0.198056	0.307909	0.675364
166	C	0.143271	0.281693	0.674577
167	H	0.263556	0.382621	0.673739
168	H	0.123651	0.242169	0.673763
169	H	0.123103	0.382075	0.673756
170	C	0.392435	0.196923	0.664005
171	C	0.363881	0.142138	0.664782
172	C	0.309072	0.113293	0.664012
173	C	0.282841	0.141848	0.664799
174	C	0.308805	0.196656	0.664012
175	C	0.36359	0.222886	0.664795
176	H	0.243318	0.121935	0.665626
177	H	0.383199	0.262409	0.665616
178	H	0.383794	0.122528	0.665606
179	C	0.225739	0.280332	0.674888
180	C	0.210814	0.234109	0.699708
181	C	0.23775	0.206788	0.693248
182	C	0.281103	0.224214	0.997794
183	C	0.295976	0.270396	0.972921
184	H	0.228075	0.175474	0.713414
185	C	0.269097	0.297763	0.97944
186	H	0.278798	0.329086	0.959282
187	C	0.333788	0.288593	0.935118
188	H	0.344001	0.259973	0.924409
189	H	0.368944	0.323843	0.944956
190	H	0.317584	0.297071	0.905684
191	C	0.173099	0.21597	0.737587
192	H	0.162886	0.244593	0.748289
193	H	0.18938	0.207563	0.767008
194	H	0.137929	0.180693	0.727823
195	C	0.22539	0.446547	0.674885
196	C	0.271622	0.477846	0.699695
197	C	0.298943	0.032103	0.693235
198	C	0.281522	0.058032	0.997774
199	C	0.235322	0.026723	0.972924
200	H	0.330261	0.053741	0.713397
201	C	0.207955	0.472477	0.979447
202	H	0.176623	0.450855	0.959295
203	C	0.217114	0.046339	0.935128
204	H	0.245736	0.08517	0.924413
205	H	0.181872	0.046252	0.944983
206	H	0.208622	0.021654	0.905694
207	C	0.289767	0.45827	0.737571
208	H	0.261143	0.419437	0.748276
209	H	0.298185	0.482963	0.766988
210	H	0.325038	0.458371	0.727796
211	C	0.473623	0.267984	0.693238
212	C	0.447695	0.224637	0.997774
213	C	0.47901	0.209754	0.972921
214	H	0.451982	0.277665	0.713397
215	C	0.459398	0.171945	0.935115
216	H	0.420569	0.161737	0.924399
217	H	0.459489	0.136787	0.944956
218	H	0.484088	0.18815	0.905684
219	H	0.086283	0.342847	0.748289
220	C	0.11444	0.807671	0.008695
221	C	0.143007	0.862456	0.007915
222	C	0.197816	0.891287	0.008687
223	C	0.224033	0.862719	0.007906
224	C	0.198057	0.807911	0.008697
225	C	0.143272	0.781695	0.007911
226	H	0.263557	0.882623	0.007073
227	H	0.123651	0.742169	0.007096
228	H	0.123103	0.882074	0.007091
229	C	0.392435	0.696922	0.997339
230	C	0.363881	0.642138	0.998116
231	C	0.309073	0.613295	0.997345
232	C	0.282841	0.641847	0.998132
233	C	0.308805	0.696655	0.997342
234	C	0.363591	0.722887	0.998129
235	H	0.243319	0.621936	0.998956
236	H	0.383199	0.762409	0.998949
237	H	0.383794	0.622527	0.998939
238	C	0.22574	0.780333	0.008224
239	C	0.210813	0.734108	0.033042
240	C	0.23775	0.706789	0.026583
241	C	0.281103	0.724214	0.331127
242	C	0.295976	0.770396	0.306254
243	H	0.228076	0.675475	0.046749
244	C	0.269096	0.797762	0.312776
245	H	0.278799	0.829088	0.292615
246	C	0.333789	0.788595	0.268452
247	H	0.344001	0.759972	0.257742
248	H	0.368944	0.823843	0.278292
249	H	0.317583	0.797069	0.239017
250	C	0.1731	0.715972	0.070921
251	H	0.162886	0.744594	0.081623
252	H	0.18938	0.707563	0.100343
253	H	0.137929	0.680693	0.061157
254	C	0.225391	0.946547	0.008219
255	C	0.271623	0.977846	0.033028
256	C	0.298944	0.532104	0.026567
257	C	0.281522	0.558031	0.331108
258	C	0.235323	0.526724	0.306257
259	H	0.330261	0.553741	0.046729
260	C	0.207955	0.972478	0.31278
261	H	0.176624	0.950856	0.292627
262	C	0.217114	0.546338	0.268463
263	H	0.245737	0.585171	0.257748
264	H	0.181872	0.546253	0.278316
265	H	0.208622	0.521653	0.239029
266	C	0.289767	0.958271	0.070903
267	H	0.261144	0.919437	0.08161
268	H	0.298186	0.982963	0.100323
269	H	0.325039	0.958371	0.061131
270	C	0.473622	0.767983	0.026572
271	C	0.447696	0.724636	0.331109
272	C	0.47901	0.709756	0.306253
273	H	0.451982	0.777664	0.046731
274	C	0.459401	0.671947	0.26845
275	H	0.420569	0.661736	0.257733
276	H	0.459488	0.636788	0.278291
277	H	0.484088	0.68815	0.239019
278	H	0.086281	0.842846	0.081623
279	C	0.11444	0.807671	0.342027
280	C	0.143007	0.862456	0.34125
281	C	0.197816	0.891287	0.34202
282	C	0.224033	0.862719	0.34124
283	C	0.198057	0.807911	0.34203
284	C	0.143272	0.781695	0.341243
285	H	0.263557	0.882623	0.340406
286	H	0.123651	0.742169	0.340429
287	H	0.123103	0.882074	0.340426
288	C	0.392435	0.696922	0.330672
289	C	0.363881	0.642138	0.33145
290	C	0.309073	0.613295	0.33068
291	C	0.282841	0.641847	0.331467
292	C	0.308805	0.696655	0.330677
293	C	0.363591	0.722887	0.331464
294	H	0.243319	0.621936	0.332292
295	H	0.383199	0.762409	0.332284
296	H	0.383794	0.622527	0.332272
297	C	0.22574	0.780333	0.341558
298	C	0.210813	0.734108	0.366374
299	C	0.23775	0.706789	0.359915
300	C	0.281103	0.724214	0.66446
301	C	0.295976	0.770396	0.639587
302	H	0.228076	0.675475	0.38008
303	C	0.269096	0.797762	0.64611
304	H	0.278799	0.829088	0.625948
305	C	0.333789	0.788595	0.601785
306	H	0.344001	0.759972	0.591076
307	H	0.368944	0.823843	0.611626
308	H	0.317583	0.797069	0.57235
309	C	0.1731	0.715972	0.404254
310	H	0.162886	0.744594	0.414956
311	H	0.18938	0.707563	0.433675
312	H	0.137929	0.680693	0.394489
313	C	0.225391	0.946547	0.341551
314	C	0.271623	0.977846	0.366361
315	C	0.298944	0.532104	0.359901
316	C	0.281522	0.558031	0.66444
317	C	0.235323	0.526724	0.63959
318	H	0.330261	0.553741	0.380063
319	C	0.207955	0.972478	0.646113
320	H	0.176624	0.950856	0.625962
321	C	0.217114	0.546338	0.601798
322	H	0.245737	0.585171	0.591079
323	H	0.181872	0.546253	0.61165
324	H	0.208622	0.521653	0.572364
325	C	0.289767	0.958271	0.404237
326	H	0.261144	0.919437	0.414942
327	H	0.298186	0.982963	0.433658
328	H	0.325039	0.958371	0.394466
329	C	0.473622	0.767983	0.359905
330	C	0.447696	0.724636	0.664444
331	C	0.47901	0.709756	0.639587
332	H	0.451982	0.777664	0.380063
333	C	0.459401	0.671947	0.601781
334	H	0.420569	0.661736	0.591066
335	H	0.459488	0.636788	0.611623
336	H	0.484088	0.68815	0.572354
337	H	0.086281	0.842846	0.414956
338	C	0.11444	0.807671	0.67536
339	C	0.143007	0.862456	0.67458
340	C	0.197816	0.891287	0.675353
341	C	0.224033	0.862719	0.674573
342	C	0.198057	0.807911	0.675364
343	C	0.143272	0.781695	0.674577
344	H	0.263557	0.882623	0.673739
345	H	0.123651	0.742169	0.673763
346	H	0.123103	0.882074	0.673756
347	C	0.392435	0.696922	0.664005
348	C	0.363881	0.642138	0.664782
349	C	0.309073	0.613295	0.664012
350	C	0.282841	0.641847	0.664802
351	C	0.308805	0.696655	0.664012
352	C	0.363591	0.722887	0.664795
353	H	0.243319	0.621936	0.665626
354	H	0.383199	0.762409	0.665616
355	H	0.383794	0.622527	0.665606
356	C	0.22574	0.780333	0.674888
357	C	0.210813	0.734108	0.699708
358	C	0.23775	0.706789	0.693248
359	C	0.281103	0.724214	0.997794
360	C	0.295976	0.770396	0.972921
361	H	0.228076	0.675475	0.713414
362	C	0.269096	0.797762	0.97944
363	H	0.278799	0.829088	0.959282
364	C	0.333789	0.788595	0.935118
365	H	0.344001	0.759972	0.924409
366	H	0.368944	0.823843	0.944956
367	H	0.317583	0.797069	0.905684
368	C	0.1731	0.715972	0.737587
369	H	0.162886	0.744594	0.748289
370	H	0.18938	0.707563	0.767008
371	H	0.137929	0.680693	0.727823
372	C	0.225391	0.946547	0.674885
373	C	0.271623	0.977846	0.699695
374	C	0.298944	0.532104	0.693235
375	C	0.281522	0.558031	0.997774
376	C	0.235323	0.526724	0.972924
377	H	0.330261	0.553741	0.713397
378	C	0.207955	0.972478	0.979447
379	H	0.176624	0.950856	0.959295
380	C	0.217114	0.546338	0.935128
381	H	0.245737	0.585171	0.924413
382	H	0.181872	0.546253	0.944983
383	H	0.208622	0.521653	0.905694
384	C	0.289767	0.958271	0.737571
385	H	0.261144	0.919437	0.748276
386	H	0.298186	0.982963	0.766988
387	H	0.325039	0.958371	0.727796
388	C	0.473622	0.767983	0.693238
389	C	0.447696	0.724636	0.997774
390	C	0.47901	0.709756	0.972921
391	H	0.451982	0.777664	0.713397
392	C	0.459401	0.671947	0.935115
393	H	0.420569	0.661736	0.924399
394	H	0.459488	0.636788	0.944956
395	H	0.484088	0.68815	0.905684
396	H	0.086281	0.842846	0.748289
397	C	0.61444	0.30767	0.008695
398	C	0.643008	0.362455	0.007915
399	C	0.697817	0.391286	0.008687
400	C	0.724034	0.362718	0.007906
401	C	0.698057	0.307909	0.008697
402	C	0.643272	0.281693	0.007911
403	H	0.763557	0.382621	0.007073
404	H	0.623651	0.242169	0.007096
405	H	0.623102	0.382075	0.007091
406	C	0.892436	0.196923	0.997339
407	C	0.863881	0.142138	0.998116
408	C	0.809072	0.113293	0.997345
409	C	0.782841	0.141848	0.998132
410	C	0.808805	0.196656	0.997342
411	C	0.86359	0.222886	0.998129
412	H	0.743317	0.121935	0.998956
413	H	0.883198	0.262409	0.998949
414	H	0.883795	0.122528	0.998939
415	C	0.72574	0.280332	0.008224
416	C	0.710812	0.234109	0.033042
417	C	0.73775	0.206788	0.026583
418	C	0.781102	0.224214	0.331127
419	C	0.795976	0.270396	0.306254
420	H	0.728075	0.175474	0.046749
421	C	0.769098	0.297763	0.312776
422	H	0.778797	0.329086	0.292615
423	C	0.833788	0.288593	0.268452
424	H	0.844001	0.259973	0.257742
425	H	0.868945	0.323843	0.278292
426	H	0.817584	0.297071	0.239017
427	C	0.6731	0.21597	0.070921
428	H	0.662885	0.244593	0.081623
429	H	0.689379	0.207563	0.100343
430	H	0.637929	0.180693	0.061157
431	C	0.72539	0.446547	0.008219
432	C	0.771622	0.477846	0.033028
433	C	0.798942	0.032103	0.026567
434	C	0.781522	0.058032	0.331108
435	C	0.735321	0.026723	0.306257
436	H	0.830261	0.053741	0.046729
437	C	0.707954	0.472477	0.31278
438	H	0.676623	0.450855	0.292627
439	C	0.717116	0.046339	0.268463
440	H	0.745736	0.08517	0.257747
441	H	0.681871	0.046252	0.278316
442	H	0.708622	0.021654	0.239029
443	C	0.789768	0.45827	0.070903
444	H	0.761143	0.419437	0.08161
445	H	0.798185	0.482963	0.100323
446	H	0.82504	0.458371	0.061131
447	C	0.55918	0.279969	0.008255
448	C	0.527878	0.294917	0.03304
449	C	0.973623	0.267984	0.026572
450	C	0.947695	0.224637	0.331109
451	C	0.97901	0.209754	0.306253
452	H	0.95198	0.277665	0.046731
453	C	0.533253	0.23663	0.312785
454	H	0.554878	0.226927	0.292628
455	C	0.959398	0.171945	0.26845
456	H	0.920569	0.161737	0.257733
457	H	0.959489	0.136787	0.278291
458	H	0.984088	0.18815	0.239019
459	C	0.547449	0.332639	0.070913
460	H	0.586281	0.342847	0.081623
461	H	0.522753	0.316368	0.100332
462	H	0.547352	0.36781	0.061138
463	C	0.61444	0.30767	0.342027
464	C	0.643008	0.362455	0.34125
465	C	0.697817	0.391286	0.34202
466	C	0.724034	0.362718	0.34124
467	C	0.698057	0.307909	0.34203
468	C	0.643272	0.281693	0.341243
469	H	0.763557	0.382621	0.340406
470	H	0.623651	0.242169	0.340429
471	H	0.623102	0.382075	0.340426
472	C	0.892436	0.196923	0.330672
473	C	0.863881	0.142138	0.33145
474	C	0.809072	0.113293	0.33068
475	C	0.782841	0.141848	0.331467
476	C	0.808805	0.196656	0.330677
477	C	0.86359	0.222886	0.331464
478	H	0.743317	0.121935	0.332292
479	H	0.883198	0.262409	0.332284
480	H	0.883795	0.122528	0.332272
481	C	0.72574	0.280332	0.341558
482	C	0.710812	0.234109	0.366374
483	C	0.73775	0.206788	0.359915
484	C	0.781102	0.224214	0.66446
485	C	0.795976	0.270396	0.639587
486	H	0.728075	0.175474	0.38008
487	C	0.769098	0.297763	0.64611
488	H	0.778797	0.329086	0.625948
489	C	0.833788	0.288593	0.601785
490	H	0.844001	0.259973	0.591076
491	H	0.868945	0.323843	0.611626
492	H	0.817584	0.297071	0.57235
493	C	0.6731	0.21597	0.404254
494	H	0.662885	0.244593	0.414956
495	H	0.689379	0.207563	0.433675
496	H	0.637929	0.180693	0.394489
497	C	0.72539	0.446547	0.341551
498	C	0.771622	0.477846	0.366361
499	C	0.798942	0.032103	0.359901
500	C	0.781522	0.058032	0.66444
501	C	0.735321	0.026723	0.63959
502	H	0.830261	0.053741	0.380063
503	C	0.707954	0.472477	0.646113
504	H	0.676623	0.450855	0.625962
505	C	0.717116	0.046339	0.601798
506	H	0.745736	0.08517	0.591079
507	H	0.681871	0.046252	0.61165
508	H	0.708622	0.021654	0.572364
509	C	0.789768	0.45827	0.404237
510	H	0.761143	0.419437	0.414942
511	H	0.798185	0.482963	0.433658
512	H	0.82504	0.458371	0.394466
513	C	0.55918	0.279969	0.341588
514	C	0.527878	0.294917	0.366374
515	C	0.973623	0.267984	0.359905
516	C	0.947695	0.224637	0.664444
517	C	0.97901	0.209754	0.639587
518	H	0.95198	0.277665	0.380063
519	C	0.533253	0.23663	0.646117
520	H	0.554878	0.226927	0.625962
521	C	0.959398	0.171945	0.601781
522	H	0.920569	0.161737	0.591066
523	H	0.959489	0.136787	0.611623
524	H	0.984088	0.18815	0.572354
525	C	0.547449	0.332639	0.404247
526	H	0.586281	0.342847	0.414956
527	H	0.522753	0.316368	0.433665
528	H	0.547352	0.36781	0.394469
529	C	0.61444	0.30767	0.67536
530	C	0.643008	0.362455	0.67458
531	C	0.697817	0.391286	0.675353
532	C	0.724034	0.362718	0.674573
533	C	0.698057	0.307909	0.675364
534	C	0.643272	0.281693	0.674577
535	H	0.763557	0.382621	0.673739
536	H	0.623651	0.242169	0.673763
537	H	0.623102	0.382075	0.673756
538	C	0.892436	0.196923	0.664005
539	C	0.863881	0.142138	0.664782
540	C	0.809072	0.113293	0.664012
541	C	0.782841	0.141848	0.664799
542	C	0.808805	0.196656	0.664012
543	C	0.86359	0.222886	0.664795
544	H	0.743317	0.121935	0.665626
545	H	0.883198	0.262409	0.665616
546	H	0.883795	0.122528	0.665606
547	C	0.72574	0.280332	0.674888
548	C	0.710812	0.234109	0.699708
549	C	0.73775	0.206788	0.693248
550	C	0.781102	0.224214	0.997794
551	C	0.795976	0.270396	0.972921
552	H	0.728075	0.175474	0.713414
553	C	0.769098	0.297763	0.97944
554	H	0.778797	0.329086	0.959282
555	C	0.833788	0.288593	0.935118
556	H	0.844001	0.259973	0.924409
557	H	0.868945	0.323843	0.944956
558	H	0.817584	0.297071	0.905684
559	C	0.6731	0.21597	0.737587
560	H	0.662885	0.244593	0.748289
561	H	0.689379	0.207563	0.767008
562	H	0.637929	0.180693	0.727823
563	C	0.72539	0.446547	0.674885
564	C	0.771622	0.477846	0.699695
565	C	0.798942	0.032103	0.693235
566	C	0.781522	0.058032	0.997774
567	C	0.735321	0.026723	0.972924
568	H	0.830261	0.053741	0.713397
569	C	0.707954	0.472477	0.979447
570	H	0.676623	0.450855	0.959295
571	C	0.717116	0.046339	0.935128
572	H	0.745736	0.08517	0.924413
573	H	0.681871	0.046252	0.944983
574	H	0.708622	0.021654	0.905694
575	C	0.789768	0.45827	0.737571
576	H	0.761143	0.419437	0.748276
577	H	0.798185	0.482963	0.766988
578	H	0.82504	0.458371	0.727796
579	C	0.55918	0.279969	0.674922
580	C	0.527878	0.294917	0.699705
581	C	0.973623	0.267984	0.693238
582	C	0.947695	0.224637	0.997774
583	C	0.97901	0.209754	0.972921
584	H	0.95198	0.277665	0.713397
585	C	0.533253	0.23663	0.97945
586	H	0.554878	0.226927	0.959295
587	C	0.959398	0.171945	0.935115
588	H	0.920569	0.161737	0.924399
589	H	0.959489	0.136787	0.944956
590	H	0.984088	0.18815	0.905684
591	C	0.547449	0.332639	0.737581
592	H	0.586281	0.342847	0.748289
593	H	0.522753	0.316368	0.766998
594	H	0.547352	0.36781	0.727803
595	C	0.61444	0.807671	0.008695
596	C	0.643007	0.862456	0.007915
597	C	0.697816	0.891287	0.008687
598	C	0.724033	0.862719	0.007906
599	C	0.698057	0.807911	0.008697
600	C	0.643272	0.781695	0.007911
601	H	0.763557	0.882623	0.007073
602	H	0.623651	0.742169	0.007096
603	H	0.623103	0.882074	0.007091
604	C	0.892436	0.696922	0.997339
605	C	0.863881	0.642138	0.998116
606	C	0.809073	0.613295	0.997345
607	C	0.782841	0.641847	0.998132
608	C	0.808805	0.696655	0.997342
609	C	0.863591	0.722887	0.998129
610	H	0.743318	0.621936	0.998956
611	H	0.883198	0.762409	0.998949
612	H	0.883794	0.622527	0.998939
613	C	0.725741	0.780333	0.008224
614	C	0.710815	0.734108	0.033042
615	C	0.73775	0.706789	0.026583
616	C	0.781102	0.724214	0.331127
617	C	0.795976	0.770396	0.306254
618	H	0.728076	0.675475	0.046749
619	C	0.769097	0.797762	0.312776
620	H	0.778798	0.829088	0.292615
621	C	0.833789	0.788595	0.268452
622	H	0.844001	0.759972	0.257742
623	H	0.868945	0.823843	0.278292
624	H	0.817583	0.797069	0.239017
625	C	0.6731	0.715972	0.070921
626	H	0.662886	0.744594	0.081623
627	H	0.689379	0.707563	0.100343
628	H	0.637929	0.680693	0.061157
629	C	0.725391	0.946547	0.008219
630	C	0.771622	0.977846	0.033028
631	C	0.798943	0.532104	0.026567
632	C	0.781521	0.558031	0.331108
633	C	0.735322	0.526724	0.306257
634	H	0.830261	0.553741	0.046729
635	C	0.707955	0.972478	0.31278
636	H	0.676624	0.950856	0.292627
637	C	0.717115	0.546338	0.268463
638	H	0.745737	0.585171	0.257748
639	H	0.681871	0.546253	0.278316
640	H	0.708622	0.521653	0.239029
641	C	0.789767	0.958271	0.070903
642	H	0.761143	0.919437	0.08161
643	H	0.798186	0.982963	0.100323
644	H	0.82504	0.958371	0.061131
645	C	0.559179	0.779969	0.008255
646	C	0.527878	0.794919	0.03304
647	C	0.973622	0.767983	0.026572
648	C	0.947694	0.724636	0.331109
649	C	0.97901	0.709756	0.306253
650	H	0.951984	0.777664	0.046731
651	C	0.533253	0.73663	0.312785
652	H	0.554876	0.726925	0.292628
653	C	0.959399	0.671947	0.26845
654	H	0.920569	0.661736	0.257733
655	H	0.959489	0.636788	0.278291
656	H	0.984088	0.68815	0.239019
657	C	0.54745	0.832638	0.070913
658	H	0.586282	0.842846	0.081623
659	H	0.522754	0.816366	0.100332
660	H	0.547352	0.867809	0.061138
661	C	0.61444	0.807671	0.342027
662	C	0.643007	0.862456	0.34125
663	C	0.697816	0.891287	0.34202
664	C	0.724033	0.862719	0.34124
665	C	0.698057	0.807911	0.34203
666	C	0.643272	0.781695	0.341243
667	H	0.763557	0.882623	0.340406
668	H	0.623651	0.742169	0.340429
669	H	0.623103	0.882074	0.340426
670	C	0.892436	0.696922	0.330672
671	C	0.863881	0.642138	0.33145
672	C	0.809073	0.613295	0.33068
673	C	0.782841	0.641847	0.331467
674	C	0.808805	0.696655	0.330677
675	C	0.863591	0.722887	0.331464
676	H	0.743318	0.621936	0.332292
677	H	0.883198	0.762409	0.332284
678	H	0.883794	0.622527	0.332272
679	C	0.725741	0.780333	0.341558
680	C	0.710815	0.734108	0.366374
681	C	0.73775	0.706789	0.359915
682	C	0.781102	0.724214	0.66446
683	C	0.795976	0.770396	0.639587
684	H	0.728076	0.675475	0.38008
685	C	0.769097	0.797762	0.64611
686	H	0.778798	0.829088	0.625948
687	C	0.833789	0.788595	0.601785
688	H	0.844001	0.759972	0.591076
689	H	0.868945	0.823843	0.611626
690	H	0.817583	0.797069	0.57235
691	C	0.6731	0.715972	0.404254
692	H	0.662886	0.744594	0.414956
693	H	0.689379	0.707563	0.433675
694	H	0.637929	0.680693	0.394489
695	C	0.725391	0.946547	0.341551
696	C	0.771622	0.977846	0.366361
697	C	0.798943	0.532104	0.359901
698	C	0.781521	0.558031	0.66444
699	C	0.735322	0.526724	0.63959
700	H	0.830261	0.553741	0.380063
701	C	0.707955	0.972478	0.646113
702	H	0.676624	0.950856	0.625962
703	C	0.717115	0.546338	0.601798
704	H	0.745737	0.585171	0.591079
705	H	0.681871	0.546253	0.61165
706	H	0.708622	0.521653	0.572364
707	C	0.789767	0.958271	0.404237
708	H	0.761143	0.919437	0.414942
709	H	0.798186	0.982963	0.433658
710	H	0.82504	0.958371	0.394466
711	C	0.559179	0.779969	0.341588
712	C	0.527878	0.794919	0.366374
713	C	0.973622	0.767983	0.359905
714	C	0.947694	0.724636	0.664444
715	C	0.97901	0.709756	0.639587
716	H	0.951984	0.777664	0.380063
717	C	0.533253	0.73663	0.646117
718	H	0.554876	0.726925	0.625962
719	C	0.959399	0.671947	0.601781
720	H	0.920569	0.661736	0.591066
721	H	0.959489	0.636788	0.611623
722	H	0.984088	0.68815	0.572354
723	C	0.54745	0.832638	0.404247
724	H	0.586282	0.842846	0.414956
725	H	0.522754	0.816366	0.433665
726	H	0.547352	0.867809	0.394469
727	C	0.61444	0.807671	0.67536
728	C	0.643007	0.862456	0.67458
729	C	0.697816	0.891287	0.675353
730	C	0.724033	0.862719	0.674573
731	C	0.698057	0.807911	0.675364
732	C	0.643272	0.781695	0.674577
733	H	0.763557	0.882623	0.673739
734	H	0.623651	0.742169	0.673763
735	H	0.623103	0.882074	0.673756
736	C	0.892436	0.696922	0.664005
737	C	0.863881	0.642138	0.664782
738	C	0.809073	0.613295	0.664012
739	C	0.782841	0.641847	0.664802
740	C	0.808805	0.696655	0.664012
741	C	0.863591	0.722887	0.664795
742	H	0.743318	0.621936	0.665626
743	H	0.883198	0.762409	0.665616
744	H	0.883794	0.622527	0.665606
745	C	0.725741	0.780333	0.674888
746	C	0.710815	0.734108	0.699708
747	C	0.73775	0.706789	0.693248
748	C	0.781102	0.724214	0.997794
749	C	0.795976	0.770396	0.972921
750	H	0.728076	0.675475	0.713414
751	C	0.769097	0.797762	0.97944
752	H	0.778798	0.829088	0.959282
753	C	0.833789	0.788595	0.935118
754	H	0.844001	0.759972	0.924409
755	H	0.868945	0.823843	0.944956
756	H	0.817583	0.797069	0.905684
757	C	0.6731	0.715972	0.737587
758	H	0.662886	0.744594	0.748289
759	H	0.689379	0.707563	0.767008
760	H	0.637929	0.680693	0.727823
761	C	0.725391	0.946547	0.674885
762	C	0.771622	0.977846	0.699695
763	C	0.798943	0.532104	0.693235
764	C	0.781521	0.558031	0.997774
765	C	0.735322	0.526724	0.972924
766	H	0.830261	0.553741	0.713397
767	C	0.707955	0.972478	0.979447
768	H	0.676624	0.950856	0.959295
769	C	0.717115	0.546338	0.935128
770	H	0.745737	0.585171	0.924413
771	H	0.681871	0.546253	0.944983
772	H	0.708622	0.521653	0.905694
773	C	0.789767	0.958271	0.737571
774	H	0.761143	0.919437	0.748276
775	H	0.798186	0.982963	0.766988
776	H	0.82504	0.958371	0.727796
777	C	0.559179	0.779969	0.674922
778	C	0.527878	0.794919	0.699705
779	C	0.973622	0.767983	0.693238
780	C	0.947694	0.724636	0.997774
781	C	0.97901	0.709756	0.972921
782	H	0.951984	0.777664	0.713397
783	C	0.533253	0.73663	0.97945
784	H	0.554876	0.726925	0.959295
785	C	0.959399	0.671947	0.935115
786	H	0.920569	0.661736	0.924399
787	H	0.959489	0.636788	0.944956
788	H	0.984088	0.68815	0.905684
789	C	0.54745	0.832638	0.737581
790	H	0.586282	0.842846	0.748289
791	H	0.522754	0.816366	0.766998
792	H	0.547352	0.867809	0.727803
