data_C144H108N54O36_2018-02-15_10:33:26
#******************************************
#
# CIF file created by Zeo++
# Zeo++ is an open source package to
# analyze microporous materials
#
#*******************************************

_cell_length_a		28.9266   
_cell_length_b		28.9266   
_cell_length_c		30.0556   
_cell_angle_alpha		90   
_cell_angle_beta		90   
_cell_angle_gamma		120   

_symmetry_space_group_name_H-M		'P1'
_symmetry_Int_Tables_number		1
_symmetry_cell_setting		Monoclinic

loop_
_symmetry_equiv_pos_as_xyz
'+x,+y,+z'

loop_
_atom_site_label
_atom_site_type_symbol
_atom_site_fract_x
_atom_site_fract_y
_atom_site_fract_z
1	C	0.352835	0.634544	0.979081
2	N	0.385128	0.688262	0.978312
3	C	0.365293	0.721091	0.987342
4	N	0.312873	0.699731	0.99778
5	C	0.279808	0.645989	0.998428
6	N	0.300401	0.613911	0.989162
7	N	0.397786	0.776905	0.98676
8	H	0.412599	0.788162	0.955102
9	N	0.225992	0.623779	0.011756
10	H	0.209665	0.583098	0.014282
11	N	0.375032	0.601484	0.972497
12	H	0.359458	0.580403	0.943597
13	C	0.627968	0.347099	0.975551
14	N	0.609425	0.293722	0.977664
15	C	0.643488	0.274241	0.978648
16	N	0.696927	0.309095	0.977517
17	C	0.716369	0.362561	0.975381
18	N	0.681473	0.381012	0.97428
19	N	0.622903	0.218648	0.981919
20	H	0.653253	0.210428	0.977001
21	N	0.771983	0.397955	0.975797
22	H	0.779584	0.435827	0.968308
23	N	0.593228	0.368143	0.976093
24	H	0.554398	0.337464	0.973691
25	C	0.563662	0.42299	0.015476
26	C	0.570379	0.459391	0.3147
27	C	0.537153	0.481797	0.312374
28	C	0.496492	0.468345	0.010901
29	C	0.489783	0.432614	0.045946
30	C	0.523515	0.410276	0.047698
31	H	0.518557	0.38447	0.072956
32	C	0.463492	0.491477	0.007465
33	C	0.409091	0.460728	0.328104
34	C	0.37702	0.484979	0.328157
35	C	0.398231	0.539072	0.340172
36	C	0.452903	0.569534	0.01776
37	C	0.485148	0.545958	0.018308
38	H	0.337618	0.462585	0.319562
39	H	0.46923	0.608749	0.026787
40	H	0.599369	0.469554	0.291073
41	H	0.524262	0.568611	0.027765
42	H	0.542622	0.507672	0.286994
43	N	0.450506	0.420838	0.079017
44	N	0.388083	0.406803	0.315106
45	O	0.373099	0.400037	0.275218
46	O	0.471395	0.436354	0.11671
47	O	0.417659	0.371648	0.081045
48	O	0.349164	0.375654	0.338958
49	C	0.363839	0.563482	0.343074
50	H	0.371426	0.583912	0.04187
51	H	0.321553	0.532661	0.342675
52	C	0.59873	0.39919	0.017176
53	H	0.589762	0.373353	0.046352
54	H	0.639824	0.432027	0.020687
55	C	0.575397	0.137803	0.027218
56	C	0.534458	0.104483	0.330746
57	C	0.513921	0.049048	0.330858
58	C	0.533898	0.025641	0.027496
59	C	0.574506	0.058361	0.058147
60	C	0.594722	0.114178	0.057619
61	H	0.624224	0.137726	0.079587
62	C	0.513023	0.969686	0.025773
63	C	0.542615	0.947519	0.340256
64	C	0.519507	0.891311	0.338805
65	C	0.467589	0.857061	0.355338
66	C	0.438666	0.879886	0.040361
67	C	0.461102	0.935536	0.042292
68	H	0.54063	0.875383	0.324693
69	H	0.400851	0.856015	0.052334
70	H	0.519691	0.120504	0.308375
71	H	0.439131	0.950909	0.055793
72	H	0.484739	0.026001	0.308422
73	N	0.593498	0.034685	0.08899
74	N	0.593838	0.981765	0.322106
75	O	0.594796	0.974125	0.281043
76	O	0.584415	0.04253	0.128337
77	O	0.642803	0.052721	0.084701
78	O	0.629048	0.975187	0.340672
79	C	0.442546	0.798125	0.352456
80	H	0.428057	0.781428	0.052261
81	H	0.471672	0.786441	0.342422
82	C	0.597705	0.19653	0.025787
83	H	0.627062	0.216388	0.05235
84	H	0.564874	0.204294	0.031692
85	C	0.855364	0.436953	0.017973
86	C	0.887022	0.428363	0.320412
87	C	0.941818	0.464928	0.31664
88	C	0.966447	0.510826	0.010604
89	C	0.935597	0.519296	0.042823
90	C	0.880214	0.482248	0.045927
91	H	0.857813	0.489018	0.068535
92	C	0.021903	0.546688	0.005053
93	C	0.042557	0.576643	0.298692
94	C	0.09855	0.606861	0.292678
95	C	0.134341	0.607105	0.324831
96	C	0.112849	0.579254	0.031797
97	C	0.057439	0.549207	0.038401
98	H	0.113207	0.627176	0.263439
99	H	0.137136	0.57907	0.05639
100	H	0.870128	0.395861	0.299785
101	H	0.043278	0.527496	0.067106
102	H	0.963581	0.457766	0.293599
103	N	0.960353	0.565055	0.070424
104	N	0.006931	0.575573	0.265824
105	O	0.012794	0.557634	0.229479
106	O	0.956238	0.552337	0.110818
107	O	0.940425	0.594518	0.06479
108	O	0.013324	0.62132	0.259337
109	C	0.192465	0.634544	0.314003
110	H	0.20719	0.677485	0.979889
111	H	0.196788	0.622126	0.280528
112	C	0.796873	0.399426	0.019488
113	H	0.778091	0.410711	0.04572
114	H	0.790485	0.359796	0.02768
115	C	0.352835	0.634544	0.312413
116	N	0.385128	0.688262	0.311644
117	C	0.365293	0.721091	0.320676
118	N	0.312873	0.699731	0.331111
119	C	0.279808	0.645989	0.331762
120	N	0.300401	0.613911	0.322495
121	N	0.397786	0.776905	0.320094
122	H	0.412599	0.788162	0.288436
123	N	0.225992	0.623779	0.34509
124	H	0.209665	0.583098	0.347615
125	N	0.375032	0.601484	0.305831
126	H	0.359458	0.580403	0.27693
127	C	0.627968	0.347099	0.308885
128	N	0.609425	0.293722	0.310997
129	C	0.643488	0.274241	0.31198
130	N	0.696927	0.309095	0.310851
131	C	0.716369	0.362561	0.308712
132	N	0.681473	0.381012	0.307613
133	N	0.622903	0.218648	0.315252
134	H	0.653253	0.210428	0.310333
135	N	0.771983	0.397955	0.309129
136	H	0.779584	0.435827	0.30164
137	N	0.593228	0.368143	0.309425
138	H	0.554398	0.337464	0.307023
139	C	0.563662	0.42299	0.34881
140	C	0.570379	0.459391	0.648035
141	C	0.537153	0.481797	0.645706
142	C	0.496492	0.468345	0.344235
143	C	0.489783	0.432614	0.37928
144	C	0.523515	0.410276	0.38103
145	H	0.518557	0.38447	0.40629
146	C	0.463492	0.491477	0.340798
147	C	0.409091	0.460728	0.661437
148	C	0.37702	0.484979	0.66149
149	C	0.398231	0.539072	0.673504
150	C	0.452903	0.569534	0.351096
151	C	0.485148	0.545958	0.351641
152	H	0.337618	0.462585	0.652896
153	H	0.46923	0.608749	0.360122
154	H	0.599369	0.469554	0.624405
155	H	0.524262	0.568611	0.3611
156	H	0.542622	0.507672	0.620326
157	N	0.450506	0.420838	0.412352
158	N	0.388083	0.406803	0.648441
159	O	0.373099	0.400037	0.608551
160	O	0.471395	0.436354	0.450042
161	O	0.417659	0.371648	0.414378
162	O	0.349164	0.375654	0.67229
163	C	0.363839	0.563482	0.676409
164	H	0.371426	0.583912	0.375204
165	H	0.321553	0.532661	0.67601
166	C	0.59873	0.39919	0.35051
167	H	0.589762	0.373353	0.379686
168	H	0.639824	0.432027	0.35402
169	C	0.575397	0.137803	0.360551
170	C	0.534458	0.104483	0.664078
171	C	0.513921	0.049048	0.664192
172	C	0.533898	0.025641	0.360831
173	C	0.574506	0.058361	0.391481
174	C	0.594722	0.114178	0.390952
175	H	0.624224	0.137726	0.412921
176	C	0.513023	0.969686	0.359107
177	C	0.542615	0.947519	0.673587
178	C	0.519507	0.891311	0.672137
179	C	0.467589	0.857061	0.68867
180	C	0.438666	0.879886	0.373694
181	C	0.461102	0.935536	0.375627
182	H	0.54063	0.875383	0.658026
183	H	0.400851	0.856015	0.385668
184	H	0.519691	0.120504	0.64171
185	H	0.439131	0.950909	0.389125
186	H	0.484739	0.026001	0.641757
187	N	0.593498	0.034685	0.422323
188	N	0.593838	0.981765	0.655441
189	O	0.594796	0.974125	0.614377
190	O	0.584415	0.04253	0.46167
191	O	0.642803	0.052721	0.418035
192	O	0.629048	0.975187	0.674003
193	C	0.442546	0.798125	0.685788
194	H	0.428057	0.781428	0.385595
195	H	0.471672	0.786441	0.675757
196	C	0.597705	0.19653	0.359121
197	H	0.627062	0.216388	0.385685
198	H	0.564874	0.204294	0.365026
199	C	0.855364	0.436953	0.351305
200	C	0.887022	0.428363	0.653744
201	C	0.941818	0.464928	0.649975
202	C	0.966447	0.510826	0.343939
203	C	0.935597	0.519296	0.376156
204	C	0.880214	0.482248	0.37926
205	H	0.857813	0.489018	0.401868
206	C	0.021903	0.546688	0.338386
207	C	0.042557	0.576643	0.632025
208	C	0.09855	0.606861	0.626012
209	C	0.134341	0.607105	0.658166
210	C	0.112849	0.579254	0.36513
211	C	0.057439	0.549207	0.371734
212	H	0.113207	0.627176	0.596773
213	H	0.137136	0.57907	0.389724
214	H	0.870128	0.395861	0.633119
215	H	0.043278	0.527496	0.400441
216	H	0.963581	0.457766	0.626931
217	N	0.960353	0.565055	0.403758
218	N	0.006931	0.575573	0.599159
219	O	0.012794	0.557634	0.562813
220	O	0.956238	0.552337	0.444153
221	O	0.940425	0.594518	0.398122
222	O	0.013324	0.62132	0.592671
223	C	0.192465	0.634544	0.647336
224	H	0.20719	0.677485	0.313223
225	H	0.196788	0.622126	0.613862
226	C	0.796873	0.399426	0.352822
227	H	0.778091	0.410711	0.379054
228	H	0.790485	0.359796	0.361014
229	C	0.352835	0.634544	0.645746
230	N	0.385128	0.688262	0.644977
231	C	0.365293	0.721091	0.65401
232	N	0.312873	0.699731	0.664444
233	C	0.279808	0.645989	0.665097
234	N	0.300401	0.613911	0.65583
235	N	0.397786	0.776905	0.653428
236	H	0.412599	0.788162	0.62177
237	N	0.225992	0.623779	0.678422
238	H	0.209665	0.583098	0.680951
239	N	0.375032	0.601484	0.639165
240	H	0.359458	0.580403	0.610265
241	C	0.627968	0.347099	0.642219
242	N	0.609425	0.293722	0.644332
243	C	0.643488	0.274241	0.645313
244	N	0.696927	0.309095	0.644185
245	C	0.716369	0.362561	0.642046
246	N	0.681473	0.381012	0.640948
247	N	0.622903	0.218648	0.648587
248	H	0.653253	0.210428	0.643666
249	N	0.771983	0.397955	0.642462
250	H	0.779584	0.435827	0.634972
251	N	0.593228	0.368143	0.642758
252	H	0.554398	0.337464	0.640356
253	C	0.563662	0.42299	0.682145
254	C	0.570379	0.459391	0.981367
255	C	0.537153	0.481797	0.979041
256	C	0.496492	0.468345	0.67757
257	C	0.489783	0.432614	0.712612
258	C	0.523515	0.410276	0.714365
259	H	0.518557	0.38447	0.739625
260	C	0.463492	0.491477	0.674133
261	C	0.409091	0.460728	0.994772
262	C	0.37702	0.484979	0.994825
263	C	0.398231	0.539072	0.006838
264	C	0.452903	0.569534	0.684427
265	C	0.485148	0.545958	0.684976
266	H	0.337618	0.462585	0.986231
267	H	0.46923	0.608749	0.693454
268	H	0.599369	0.469554	0.957741
269	H	0.524262	0.568611	0.694432
270	H	0.542622	0.507672	0.953661
271	N	0.450506	0.420838	0.745684
272	N	0.388083	0.406803	0.981773
273	O	0.373099	0.400037	0.941887
274	O	0.471395	0.436354	0.783377
275	O	0.417659	0.371648	0.747713
276	O	0.349164	0.375654	0.005623
277	C	0.363839	0.563482	0.00974
278	H	0.371426	0.583912	0.708536
279	H	0.321553	0.532661	0.009341
280	C	0.59873	0.39919	0.683842
281	H	0.589762	0.373353	0.713018
282	H	0.639824	0.432027	0.687355
283	C	0.575397	0.137803	0.693887
284	C	0.534458	0.104483	0.997414
285	C	0.513921	0.049048	0.997527
286	C	0.533898	0.025641	0.694163
287	C	0.574506	0.058361	0.724816
288	C	0.594722	0.114178	0.724287
289	H	0.624224	0.137726	0.746256
290	C	0.513023	0.969686	0.692439
291	C	0.542615	0.947519	0.006922
292	C	0.519507	0.891311	0.005471
293	C	0.467589	0.857061	0.022003
294	C	0.438666	0.879886	0.707029
295	C	0.461102	0.935536	0.708959
296	H	0.54063	0.875383	0.991362
297	H	0.400851	0.856015	0.719003
298	H	0.519691	0.120504	0.975042
299	H	0.439131	0.950909	0.72246
300	H	0.484739	0.026001	0.975088
301	N	0.593498	0.034685	0.755659
302	N	0.593838	0.981765	0.988773
303	O	0.594796	0.974125	0.947712
304	O	0.584415	0.04253	0.795006
305	O	0.642803	0.052721	0.75137
306	O	0.629048	0.975187	0.007336
307	C	0.442546	0.798125	0.019122
308	H	0.428057	0.781428	0.71893
309	H	0.471672	0.786441	0.009088
310	C	0.597705	0.19653	0.692456
311	H	0.627062	0.216388	0.719017
312	H	0.564874	0.204294	0.698358
313	C	0.855364	0.436953	0.68464
314	C	0.887022	0.428363	0.987079
315	C	0.941818	0.464928	0.983306
316	C	0.966447	0.510826	0.677271
317	C	0.935597	0.519296	0.709491
318	C	0.880214	0.482248	0.712595
319	H	0.857813	0.489018	0.735203
320	C	0.021903	0.546688	0.671721
321	C	0.042557	0.576643	0.96536
322	C	0.09855	0.606861	0.959344
323	C	0.134341	0.607105	0.991498
324	C	0.112849	0.579254	0.698465
325	C	0.057439	0.549207	0.705069
326	H	0.113207	0.627176	0.930105
327	H	0.137136	0.57907	0.723059
328	H	0.870128	0.395861	0.966451
329	H	0.043278	0.527496	0.733773
330	H	0.963581	0.457766	0.960266
331	N	0.960353	0.565055	0.737093
332	N	0.006931	0.575573	0.932491
333	O	0.012794	0.557634	0.896148
334	O	0.956238	0.552337	0.777485
335	O	0.940425	0.594518	0.731457
336	O	0.013324	0.62132	0.926003
337	C	0.192465	0.634544	0.980671
338	H	0.20719	0.677485	0.646558
339	H	0.196788	0.622126	0.947193
340	C	0.796873	0.399426	0.686154
341	H	0.778091	0.410711	0.712389
342	H	0.790485	0.359796	0.694349
