data_C168H108N42_2018-02-15_10:48:11
#******************************************
#
# CIF file created by Zeo++
# Zeo++ is an open source package to
# analyze microporous materials
#
#*******************************************

_cell_length_a		25.6516   
_cell_length_b		25.6494   
_cell_length_c		29.404   
_cell_angle_alpha		90   
_cell_angle_beta		90   
_cell_angle_gamma		89.97   

_symmetry_space_group_name_H-M		'P1'
_symmetry_Int_Tables_number		1
_symmetry_cell_setting		Monoclinic

loop_
_symmetry_equiv_pos_as_xyz
'+x,+y,+z'

loop_
_atom_site_label
_atom_site_type_symbol
_atom_site_fract_x
_atom_site_fract_y
_atom_site_fract_z
1	C	0.912854	0.146094	0.338685
2	C	0.87435	0.108473	0.338964
3	C	0.898163	0.059455	0.338912
4	N	0.950186	0.069384	0.338987
5	C	0.96132	0.121163	0.338914
6	C	0.01046	0.147167	0.338699
7	C	0.059541	0.121243	0.338127
8	N	0.069197	0.069324	0.338082
9	C	0.120876	0.058497	0.337354
10	C	0.146014	0.106792	0.336729
11	C	0.108376	0.145304	0.33757
12	C	0.14564	0.008814	0.33678
13	C	0.118422	0.960302	0.336732
14	N	0.066401	0.950368	0.337468
15	C	0.055222	0.898585	0.33688
16	C	0.103654	0.873645	0.335748
17	C	0.14217	0.911248	0.33604
18	C	0.006078	0.872577	0.336903
19	C	0.957026	0.898543	0.337549
20	N	0.947444	0.950454	0.338186
21	C	0.895773	0.961281	0.338662
22	C	0.870556	0.91303	0.338207
23	C	0.908169	0.874507	0.337827
24	C	0.871021	0.010938	0.33902
25	C	0.815133	0.011954	0.338742
26	C	0.786242	0.002884	0.045601
27	C	0.731251	0.003305	0.044977
28	C	0.703455	0.012341	0.337585
29	C	0.732583	0.022252	0.297543
30	C	0.787515	0.021759	0.298038
31	C	0.005721	0.816689	0.335026
32	C	0.016704	0.786185	0.040629
33	C	0.016224	0.731221	0.038395
34	C	0.004209	0.705236	0.330574
35	C	0.992712	0.735825	0.291916
36	C	0.993778	0.790688	0.293938
37	C	0.201532	0.007648	0.33491
38	C	0.227436	0.995886	0.293726
39	C	0.282289	0.99449	0.291646
40	C	0.312993	0.00557	0.330323
41	C	0.287119	0.017394	0.038241
42	C	0.232162	0.018161	0.040536
43	C	0.010596	0.203083	0.338359
44	C	0.020129	0.230812	0.297663
45	C	0.001431	0.231905	0.045247
46	C	0.001554	0.286908	0.044672
47	C	0.010405	0.314805	0.337304
48	C	0.020351	0.285754	0.29722
49	H	0.028402	0.304325	0.267287
50	H	0.027335	0.211107	0.268043
51	H	0.994804	0.306599	0.074376
52	H	0.994654	0.212961	0.075308
53	H	0.90582	0.185312	0.338369
54	H	0.835303	0.116397	0.339064
55	H	0.976366	0.042597	0.339168
56	H	0.040247	0.977168	0.338103
57	H	0.116069	0.184392	0.337453
58	H	0.185243	0.113625	0.335825
59	H	0.206457	0.988151	0.264889
60	H	0.299764	0.985999	0.261222
61	H	0.214559	0.026725	0.07087
62	H	0.308046	0.025295	0.067001
63	H	0.181197	0.903252	0.335598
64	H	0.110674	0.83444	0.334884
65	H	0.831303	0.906246	0.338206
66	H	0.900416	0.835434	0.33769
67	H	0.02531	0.803882	0.070909
68	H	0.02442	0.710367	0.067138
69	H	0.9856	0.811593	0.265148
70	H	0.984028	0.718266	0.261573
71	H	0.807292	0.028793	0.268426
72	H	0.714061	0.030354	0.267591
73	H	0.711493	0.99649	0.074632
74	H	0.805125	0.995808	0.075641
75	N	0.003588	0.653551	0.325097
76	N	0.364675	0.004783	0.324792
77	N	0.010938	0.367064	0.339252
78	N	0.651205	0.012807	0.339419
79	C	0.006823	0.455114	0.315854
80	C	0.009759	0.490697	0.279269
81	C	0.015339	0.545002	0.28685
82	C	0.015726	0.562866	0.999487
83	N	0.012614	0.525883	0.032684
84	N	0.008562	0.47571	0.025053
85	N	0.021594	0.576383	0.2499
86	H	0.022021	0.562083	0.219186
87	H	0.029936	0.612981	0.252635
88	H	0.009607	0.476736	0.246599
89	C	0.003163	0.401697	0.308208
90	H	0.994682	0.389792	0.276881
91	C	0.021282	0.614255	0.014206
92	H	0.039947	0.620622	0.04331
93	C	0.563266	0.008097	0.315844
94	C	0.52772	0.009785	0.279175
95	C	0.473363	0.015261	0.286571
96	C	0.455421	0.016934	0.999171
97	N	0.492387	0.014923	0.03245
98	N	0.542593	0.01092	0.024968
99	N	0.442025	0.020235	0.249441
100	H	0.45646	0.020156	0.218776
101	H	0.405477	0.028892	0.25197
102	H	0.541727	0.00872	0.246533
103	C	0.616723	0.004572	0.30835
104	H	0.628781	0.995699	0.277145
105	C	0.403983	0.022584	0.013791
106	H	0.397572	0.04152	0.04276
107	C	0.912854	0.146094	0.672018
108	C	0.87435	0.108473	0.672297
109	C	0.898163	0.059455	0.672246
110	N	0.950186	0.069384	0.672321
111	C	0.96132	0.121163	0.672246
112	C	0.01046	0.147167	0.672032
113	C	0.059541	0.121243	0.67146
114	N	0.069197	0.069324	0.671416
115	C	0.120876	0.058497	0.670688
116	C	0.146014	0.106792	0.670063
117	C	0.108376	0.145304	0.670903
118	C	0.14564	0.008814	0.670114
119	C	0.118422	0.960302	0.670066
120	N	0.066401	0.950368	0.670801
121	C	0.055222	0.898585	0.670212
122	C	0.103654	0.873645	0.66908
123	C	0.14217	0.911248	0.669372
124	C	0.006078	0.872577	0.670236
125	C	0.957026	0.898543	0.670882
126	N	0.947444	0.950454	0.671518
127	C	0.895773	0.961281	0.671994
128	C	0.870556	0.91303	0.671542
129	C	0.908169	0.874507	0.671161
130	C	0.871021	0.010938	0.672351
131	C	0.815133	0.011954	0.672076
132	C	0.786242	0.002884	0.378935
133	C	0.731251	0.003305	0.378309
134	C	0.703455	0.012341	0.67092
135	C	0.732583	0.022252	0.630877
136	C	0.787515	0.021759	0.631371
137	C	0.005721	0.816689	0.668359
138	C	0.016704	0.786185	0.373963
139	C	0.016224	0.731221	0.371729
140	C	0.004209	0.705236	0.663907
141	C	0.992712	0.735825	0.625249
142	C	0.993778	0.790688	0.627269
143	C	0.201532	0.007648	0.668243
144	C	0.227436	0.995886	0.627058
145	C	0.282289	0.99449	0.62498
146	C	0.312993	0.00557	0.663655
147	C	0.287119	0.017394	0.371576
148	C	0.232162	0.018161	0.373868
149	C	0.010596	0.203083	0.671692
150	C	0.020129	0.230812	0.630996
151	C	0.001431	0.231905	0.378582
152	C	0.001554	0.286908	0.378003
153	C	0.010405	0.314805	0.670637
154	C	0.020351	0.285754	0.630554
155	H	0.028402	0.304325	0.60062
156	H	0.027335	0.211107	0.601375
157	H	0.994804	0.306599	0.40771
158	H	0.994654	0.212961	0.408642
159	H	0.90582	0.185312	0.671702
160	H	0.835303	0.116397	0.672396
161	H	0.976366	0.042597	0.672501
162	H	0.040247	0.977168	0.671437
163	H	0.116069	0.184392	0.670787
164	H	0.185243	0.113625	0.669158
165	H	0.206457	0.988151	0.598222
166	H	0.299764	0.985999	0.594556
167	H	0.214559	0.026725	0.404204
168	H	0.308046	0.025295	0.400334
169	H	0.181197	0.903252	0.66893
170	H	0.110674	0.83444	0.668216
171	H	0.831303	0.906246	0.671539
172	H	0.900416	0.835434	0.671025
173	H	0.02531	0.803882	0.404241
174	H	0.02442	0.710367	0.40047
175	H	0.9856	0.811593	0.59848
176	H	0.984028	0.718266	0.594906
177	H	0.807292	0.028793	0.601759
178	H	0.714061	0.030354	0.600926
179	H	0.711493	0.99649	0.407965
180	H	0.805125	0.995808	0.408975
181	N	0.003588	0.653551	0.658431
182	N	0.364675	0.004783	0.658125
183	N	0.010938	0.367064	0.672586
184	N	0.651205	0.012807	0.672753
185	C	0.006823	0.455114	0.649188
186	C	0.009759	0.490697	0.612601
187	C	0.015339	0.545002	0.620185
188	C	0.015726	0.562866	0.332821
189	N	0.012614	0.525883	0.366015
190	N	0.008562	0.47571	0.358387
191	N	0.021594	0.576383	0.583234
192	H	0.022021	0.562083	0.552517
193	H	0.029936	0.612981	0.585968
194	H	0.009607	0.476736	0.579932
195	C	0.003163	0.401697	0.641543
196	H	0.994682	0.389792	0.610213
197	C	0.021282	0.614255	0.347538
198	H	0.039947	0.620622	0.376643
199	C	0.563266	0.008097	0.649178
200	C	0.52772	0.009785	0.612509
201	C	0.473363	0.015261	0.619903
202	C	0.455421	0.016934	0.332505
203	N	0.492387	0.014923	0.365784
204	N	0.542593	0.01092	0.358302
205	N	0.442025	0.020235	0.582775
206	H	0.45646	0.020156	0.552109
207	H	0.405477	0.028892	0.585302
208	H	0.541727	0.00872	0.579867
209	C	0.616723	0.004572	0.641682
210	H	0.628781	0.995699	0.610479
211	C	0.403983	0.022584	0.347123
212	H	0.397572	0.04152	0.376092
213	C	0.912854	0.146094	0.005351
214	C	0.87435	0.108473	0.005629
215	C	0.898163	0.059455	0.005578
216	N	0.950186	0.069384	0.005653
217	C	0.96132	0.121163	0.005582
218	C	0.01046	0.147167	0.005364
219	C	0.059541	0.121243	0.004793
220	N	0.069197	0.069324	0.004749
221	C	0.120876	0.058497	0.004021
222	C	0.146014	0.106792	0.003395
223	C	0.108376	0.145304	0.004235
224	C	0.14564	0.008814	0.003446
225	C	0.118422	0.960302	0.003398
226	N	0.066401	0.950368	0.004133
227	C	0.055222	0.898585	0.003545
228	C	0.103654	0.873645	0.002412
229	C	0.14217	0.911248	0.002705
230	C	0.006078	0.872577	0.003569
231	C	0.957026	0.898543	0.004215
232	N	0.947444	0.950454	0.004851
233	C	0.895773	0.961281	0.00533
234	C	0.870556	0.91303	0.004874
235	C	0.908169	0.874507	0.004494
236	C	0.871021	0.010938	0.005687
237	C	0.815133	0.011954	0.005408
238	C	0.786242	0.002884	0.712268
239	C	0.731251	0.003305	0.711642
240	C	0.703455	0.012341	0.004252
241	C	0.732583	0.022252	0.96421
242	C	0.787515	0.021759	0.964703
243	C	0.005721	0.816689	0.001691
244	C	0.016704	0.786185	0.707296
245	C	0.016224	0.731221	0.705061
246	C	0.004209	0.705236	0.997239
247	C	0.992712	0.735825	0.958581
248	C	0.993778	0.790688	0.960605
249	C	0.201532	0.007648	0.001576
250	C	0.227436	0.995886	0.960391
251	C	0.282289	0.99449	0.958313
252	C	0.312993	0.00557	0.996988
253	C	0.287119	0.017394	0.704908
254	C	0.232162	0.018161	0.7072
255	C	0.010596	0.203083	0.005024
256	C	0.020129	0.230812	0.964329
257	C	0.001431	0.231905	0.711914
258	C	0.001554	0.286908	0.711336
259	C	0.010405	0.314805	0.00397
260	C	0.020351	0.285754	0.963887
261	H	0.028402	0.304325	0.933952
262	H	0.027335	0.211107	0.93471
263	H	0.994804	0.306599	0.741043
264	H	0.994654	0.212961	0.741975
265	H	0.90582	0.185312	0.005034
266	H	0.835303	0.116397	0.005732
267	H	0.976366	0.042597	0.005834
268	H	0.040247	0.977168	0.004769
269	H	0.116069	0.184392	0.004119
270	H	0.185243	0.113625	0.00249
271	H	0.206457	0.988151	0.931554
272	H	0.299764	0.985999	0.927888
273	H	0.214559	0.026725	0.737536
274	H	0.308046	0.025295	0.733666
275	H	0.181197	0.903252	0.002263
276	H	0.110674	0.83444	0.001548
277	H	0.831303	0.906246	0.004871
278	H	0.900416	0.835434	0.004358
279	H	0.02531	0.803882	0.737574
280	H	0.02442	0.710367	0.733806
281	H	0.9856	0.811593	0.931813
282	H	0.984028	0.718266	0.928239
283	H	0.807292	0.028793	0.935091
284	H	0.714061	0.030354	0.934258
285	H	0.711493	0.99649	0.741298
286	H	0.805125	0.995808	0.742308
287	N	0.003588	0.653551	0.991764
288	N	0.364675	0.004783	0.991458
289	N	0.010938	0.367064	0.005919
290	N	0.651205	0.012807	0.006085
291	C	0.006823	0.455114	0.98252
292	C	0.009759	0.490697	0.945933
293	C	0.015339	0.545002	0.953517
294	C	0.015726	0.562866	0.666155
295	N	0.012614	0.525883	0.699351
296	N	0.008562	0.47571	0.691719
297	N	0.021594	0.576383	0.916567
298	H	0.022021	0.562083	0.885853
299	H	0.029936	0.612981	0.919301
300	H	0.009607	0.476736	0.913264
301	C	0.003163	0.401697	0.974875
302	H	0.994682	0.389792	0.943546
303	C	0.021282	0.614255	0.680871
304	H	0.039947	0.620622	0.709976
305	C	0.563266	0.008097	0.98251
306	C	0.52772	0.009785	0.945842
307	C	0.473363	0.015261	0.953239
308	C	0.455421	0.016934	0.665839
309	N	0.492387	0.014923	0.699116
310	N	0.542593	0.01092	0.691634
311	N	0.442025	0.020235	0.916108
312	H	0.45646	0.020156	0.885442
313	H	0.405477	0.028892	0.918638
314	H	0.541727	0.00872	0.9132
315	C	0.616723	0.004572	0.975015
316	H	0.628781	0.995699	0.943811
317	C	0.403983	0.022584	0.680456
318	H	0.397572	0.04152	0.709425
