data_C144H126N36_2018-02-15_10:33:24
#******************************************
#
# CIF file created by Zeo++
# Zeo++ is an open source package to
# analyze microporous materials
#
#*******************************************

_cell_length_a		29.1727   
_cell_length_b		29.1726   
_cell_length_c		30.0566   
_cell_angle_alpha		90   
_cell_angle_beta		90   
_cell_angle_gamma		120   

_symmetry_space_group_name_H-M		'P1'
_symmetry_Int_Tables_number		1
_symmetry_cell_setting		Monoclinic

loop_
_symmetry_equiv_pos_as_xyz
'+x,+y,+z'

loop_
_atom_site_label
_atom_site_type_symbol
_atom_site_fract_x
_atom_site_fract_y
_atom_site_fract_z
1	C	0.363899	0.644001	0.959883
2	N	0.385108	0.697408	0.959927
3	C	0.353693	0.719451	0.959903
4	N	0.300284	0.687251	0.959903
5	C	0.278239	0.633792	0.959863
6	N	0.310441	0.612585	0.959887
7	N	0.377203	0.775016	0.961457
8	H	0.34947	0.785643	0.953605
9	N	0.222674	0.601735	0.961374
10	H	0.212063	0.563369	0.953568
11	N	0.395952	0.620489	0.961427
12	H	0.434318	0.648232	0.953605
13	C	0.628832	0.348734	0.033287
14	N	0.613015	0.296305	0.033633
15	C	0.648915	0.27964	0.033292
16	N	0.701343	0.316254	0.033608
17	C	0.71801	0.368818	0.03326
18	N	0.681397	0.384633	0.033595
19	N	0.630764	0.22491	0.034904
20	H	0.661319	0.218812	0.04385
21	N	0.772741	0.405411	0.03482
22	H	0.778843	0.442083	0.043697
23	N	0.592246	0.366879	0.034874
24	H	0.555588	0.336322	0.043804
25	C	0.424009	0.567624	0.004284
26	C	0.405379	0.52275	0.309811
27	C	0.432019	0.493816	0.307708
28	C	0.477723	0.508612	0.000414
29	C	0.496097	0.553382	0.028445
30	C	0.469718	0.582598	0.030255
31	H	0.529423	0.565657	0.047356
32	H	0.484251	0.614975	0.050658
33	C	0.504263	0.478898	0.332052
34	C	0.518029	0.465535	0.290887
35	C	0.544689	0.436565	0.28941
36	C	0.557622	0.419225	0.328919
37	C	0.543833	0.43267	0.036739
38	C	0.5177	0.462111	0.038276
39	H	0.509766	0.477766	0.261561
40	H	0.554681	0.428174	0.259054
41	H	0.553171	0.421805	0.066185
42	H	0.372153	0.510801	0.290852
43	H	0.507992	0.470637	0.068691
44	H	0.417052	0.461149	0.287602
45	C	0.586995	0.389765	0.325575
46	H	0.62624	0.41755	0.312368
47	H	0.566979	0.35763	0.30141
48	C	0.395439	0.597785	0.00584
49	H	0.412923	0.629593	0.03057
50	H	0.354797	0.570383	0.016366
51	C	0.430027	0.85592	0.004343
52	C	0.474944	0.882159	0.309912
53	C	0.503898	0.937732	0.307821
54	C	0.489064	0.968645	0.00048
55	C	0.44426	0.942256	0.028477
56	C	0.415029	0.88666	0.03028
57	H	0.431961	0.963313	0.047348
58	H	0.382622	0.86882	0.05065
59	C	0.518782	0.024898	0.332111
60	C	0.532211	0.052016	0.29094
61	C	0.561142	0.107645	0.289455
62	C	0.578448	0.137929	0.328961
63	C	0.564953	0.110707	0.036786
64	C	0.535524	0.055132	0.038331
65	H	0.519961	0.031514	0.261617
66	H	0.569556	0.126021	0.259096
67	H	0.575802	0.130917	0.066228
68	H	0.486904	0.860876	0.290975
69	H	0.526965	0.036905	0.06875
70	H	0.536574	0.955425	0.287726
71	C	0.607892	0.196763	0.325607
72	H	0.5801	0.208208	0.312389
73	H	0.640034	0.208882	0.301448
74	C	0.399849	0.797189	0.005888
75	H	0.368008	0.782869	0.030587
76	H	0.427228	0.783933	0.016452
77	C	0.141715	0.573656	0.004188
78	C	0.11546	0.592236	0.309672
79	C	0.059886	0.565585	0.30757
80	C	0.028987	0.519912	0.000311
81	C	0.055391	0.501582	0.02838
82	C	0.110986	0.527975	0.030193
83	H	0.034342	0.468282	0.047321
84	H	0.128834	0.51348	0.050632
85	C	0.972732	0.493369	0.33196
86	C	0.945586	0.479559	0.290802
87	C	0.889958	0.452861	0.28934
88	C	0.859697	0.440001	0.328855
89	C	0.886947	0.453839	0.036667
90	C	0.942522	0.480006	0.03819
91	H	0.966071	0.487724	0.261475
92	H	0.871562	0.442807	0.258992
93	H	0.866755	0.444561	0.066117
94	H	0.136734	0.625441	0.290687
95	H	0.960769	0.489743	0.068599
96	H	0.042182	0.580516	0.287426
97	C	0.800862	0.410584	0.325527
98	H	0.789422	0.371319	0.312384
99	H	0.788715	0.430537	0.30132
100	C	0.200443	0.602254	0.005766
101	H	0.214769	0.584798	0.030523
102	H	0.213654	0.6429	0.016269
103	C	0.363899	0.644001	0.293216
104	N	0.385108	0.697408	0.293262
105	C	0.353693	0.719451	0.293238
106	N	0.300284	0.687251	0.293236
107	C	0.278239	0.633792	0.293196
108	N	0.310441	0.612585	0.29322
109	N	0.377203	0.775016	0.294791
110	H	0.34947	0.785643	0.28694
111	N	0.222674	0.601735	0.294706
112	H	0.212063	0.563369	0.286903
113	N	0.395952	0.620489	0.29476
114	H	0.434318	0.648232	0.28694
115	C	0.628832	0.348734	0.366619
116	N	0.613015	0.296305	0.366965
117	C	0.648915	0.27964	0.366625
118	N	0.701343	0.316254	0.366941
119	C	0.71801	0.368818	0.366592
120	N	0.681397	0.384633	0.366928
121	N	0.630764	0.22491	0.368239
122	H	0.661319	0.218812	0.377182
123	N	0.772741	0.405411	0.368152
124	H	0.778843	0.442083	0.377029
125	N	0.592246	0.366879	0.368209
126	H	0.555588	0.336322	0.377135
127	C	0.424009	0.567624	0.337617
128	C	0.405379	0.52275	0.643144
129	C	0.432019	0.493816	0.641041
130	C	0.477723	0.508612	0.333747
131	C	0.496097	0.553382	0.361778
132	C	0.469718	0.582598	0.363588
133	H	0.529423	0.565657	0.380689
134	H	0.484251	0.614975	0.383993
135	C	0.504263	0.478898	0.665385
136	C	0.518029	0.465535	0.62422
137	C	0.544689	0.436565	0.622742
138	C	0.557622	0.419225	0.662251
139	C	0.543833	0.43267	0.370072
140	C	0.5177	0.462111	0.371609
141	H	0.509766	0.477766	0.594895
142	H	0.554681	0.428174	0.592386
143	H	0.553171	0.421805	0.399517
144	H	0.372153	0.510801	0.624186
145	H	0.507992	0.470637	0.402025
146	H	0.417052	0.461149	0.620936
147	C	0.586995	0.389765	0.658907
148	H	0.62624	0.41755	0.645702
149	H	0.566979	0.35763	0.634743
150	C	0.395439	0.597785	0.339174
151	H	0.412923	0.629593	0.363904
152	H	0.354797	0.570383	0.349701
153	C	0.430027	0.85592	0.337677
154	C	0.474944	0.882159	0.643247
155	C	0.503898	0.937732	0.641154
156	C	0.489064	0.968645	0.333814
157	C	0.44426	0.942256	0.361811
158	C	0.415029	0.88666	0.363614
159	H	0.431961	0.963313	0.380682
160	H	0.382622	0.86882	0.383983
161	C	0.518782	0.024898	0.665445
162	C	0.532211	0.052016	0.624273
163	C	0.561142	0.107645	0.622789
164	C	0.578448	0.137929	0.662294
165	C	0.564953	0.110707	0.370119
166	C	0.535524	0.055132	0.371666
167	H	0.519961	0.031514	0.594951
168	H	0.569556	0.126021	0.59243
169	H	0.575802	0.130917	0.39956
170	H	0.486904	0.860876	0.624309
171	H	0.526965	0.036905	0.402082
172	H	0.536574	0.955425	0.621059
173	C	0.607892	0.196763	0.658941
174	H	0.5801	0.208208	0.645722
175	H	0.640034	0.208882	0.63478
176	C	0.399849	0.797189	0.33922
177	H	0.368008	0.782869	0.36392
178	H	0.427228	0.783933	0.349784
179	C	0.141715	0.573656	0.33752
180	C	0.11546	0.592236	0.643004
181	C	0.059886	0.565585	0.640901
182	C	0.028987	0.519912	0.333644
183	C	0.055391	0.501582	0.361711
184	C	0.110986	0.527975	0.363528
185	H	0.034342	0.468282	0.380656
186	H	0.128834	0.51348	0.383966
187	C	0.972732	0.493369	0.665292
188	C	0.945586	0.479559	0.624136
189	C	0.889958	0.452861	0.622672
190	C	0.859697	0.440001	0.662188
191	C	0.886947	0.453839	0.369999
192	C	0.942522	0.480006	0.371523
193	H	0.966071	0.487724	0.594808
194	H	0.871562	0.442807	0.592323
195	H	0.866755	0.444561	0.39945
196	H	0.136734	0.625441	0.62402
197	H	0.960769	0.489743	0.401932
198	H	0.042182	0.580516	0.620759
199	C	0.800862	0.410584	0.658861
200	H	0.789422	0.371319	0.645716
201	H	0.788715	0.430537	0.634653
202	C	0.200443	0.602254	0.339101
203	H	0.214769	0.584798	0.363857
204	H	0.213654	0.6429	0.349601
205	C	0.363899	0.644001	0.626548
206	N	0.385108	0.697408	0.626595
207	C	0.353693	0.719451	0.626572
208	N	0.300284	0.687251	0.626568
209	C	0.278239	0.633792	0.626529
210	N	0.310441	0.612585	0.626552
211	N	0.377203	0.775016	0.628122
212	H	0.34947	0.785643	0.620274
213	N	0.222674	0.601735	0.628039
214	H	0.212063	0.563369	0.620237
215	N	0.395952	0.620489	0.628092
216	H	0.434318	0.648232	0.620274
217	C	0.628832	0.348734	0.699953
218	N	0.613015	0.296305	0.700299
219	C	0.648915	0.27964	0.699957
220	N	0.701343	0.316254	0.700273
221	C	0.71801	0.368818	0.699927
222	N	0.681397	0.384633	0.700259
223	N	0.630764	0.22491	0.70157
224	H	0.661319	0.218812	0.710517
225	N	0.772741	0.405411	0.701487
226	H	0.778843	0.442083	0.710364
227	N	0.592246	0.366879	0.70154
228	H	0.555588	0.336322	0.71047
229	C	0.424009	0.567624	0.670951
230	C	0.405379	0.52275	0.976479
231	C	0.432019	0.493816	0.974373
232	C	0.477723	0.508612	0.667079
233	C	0.496097	0.553382	0.695113
234	C	0.469718	0.582598	0.696922
235	H	0.529423	0.565657	0.71402
236	H	0.484251	0.614975	0.717324
237	C	0.504263	0.478898	0.99872
238	C	0.518029	0.465535	0.957554
239	C	0.544689	0.436565	0.956077
240	C	0.557622	0.419225	0.995586
241	C	0.543833	0.43267	0.703407
242	C	0.5177	0.462111	0.704944
243	H	0.509766	0.477766	0.928226
244	H	0.554681	0.428174	0.925721
245	H	0.553171	0.421805	0.732851
246	H	0.372153	0.510801	0.957518
247	H	0.507992	0.470637	0.735357
248	H	0.417052	0.461149	0.954267
249	C	0.586995	0.389765	0.992242
250	H	0.62624	0.41755	0.979034
251	H	0.566979	0.35763	0.968074
252	C	0.395439	0.597785	0.672505
253	H	0.412923	0.629593	0.697235
254	H	0.354797	0.570383	0.683032
255	C	0.430027	0.85592	0.671008
256	C	0.474944	0.882159	0.976578
257	C	0.503898	0.937732	0.974486
258	C	0.489064	0.968645	0.667145
259	C	0.44426	0.942256	0.695142
260	C	0.415029	0.88666	0.696946
261	H	0.431961	0.963313	0.714014
262	H	0.382622	0.86882	0.717317
263	C	0.518782	0.024898	0.998777
264	C	0.532211	0.052016	0.957608
265	C	0.561142	0.107645	0.95612
266	C	0.578448	0.137929	0.995626
267	C	0.564953	0.110707	0.703453
268	C	0.535524	0.055132	0.704997
269	H	0.519961	0.031514	0.928283
270	H	0.569556	0.126021	0.925761
271	H	0.575802	0.130917	0.732895
272	H	0.486904	0.860876	0.957641
273	H	0.526965	0.036905	0.735417
274	H	0.536574	0.955425	0.954394
275	C	0.607892	0.196763	0.992272
276	H	0.5801	0.208208	0.979054
277	H	0.640034	0.208882	0.968114
278	C	0.399849	0.797189	0.672555
279	H	0.368008	0.782869	0.697252
280	H	0.427228	0.783933	0.683118
281	C	0.141715	0.573656	0.670855
282	C	0.11546	0.592236	0.976339
283	C	0.059886	0.565585	0.974236
284	C	0.028987	0.519912	0.666979
285	C	0.055391	0.501582	0.695046
286	C	0.110986	0.527975	0.696859
287	H	0.034342	0.468282	0.713987
288	H	0.128834	0.51348	0.717297
289	C	0.972732	0.493369	0.998627
290	C	0.945586	0.479559	0.957468
291	C	0.889958	0.452861	0.956007
292	C	0.859697	0.440001	0.995519
293	C	0.886947	0.453839	0.703334
294	C	0.942522	0.480006	0.704857
295	H	0.966071	0.487724	0.92814
296	H	0.871562	0.442807	0.925658
297	H	0.866755	0.444561	0.732782
298	H	0.136734	0.625441	0.957351
299	H	0.960769	0.489743	0.735267
300	H	0.042182	0.580516	0.954091
301	C	0.800862	0.410584	0.992192
302	H	0.789422	0.371319	0.97905
303	H	0.788715	0.430537	0.967985
304	C	0.200443	0.602254	0.672432
305	H	0.214769	0.584798	0.697189
306	H	0.213654	0.6429	0.682935
