data_C360H216N144O72_2018-02-15_10:32:38
#******************************************
#
# CIF file created by Zeo++
# Zeo++ is an open source package to
# analyze microporous materials
#
#*******************************************

_cell_length_a		43.4422   
_cell_length_b		43.4422   
_cell_length_c		30.1056   
_cell_angle_alpha		90   
_cell_angle_beta		90   
_cell_angle_gamma		120   

_symmetry_space_group_name_H-M		'P1'
_symmetry_Int_Tables_number		1
_symmetry_cell_setting		Monoclinic

loop_
_symmetry_equiv_pos_as_xyz
'+x,+y,+z'

loop_
_atom_site_label
_atom_site_type_symbol
_atom_site_fract_x
_atom_site_fract_y
_atom_site_fract_z
1	C	0.128683	0.321691	0.286563
2	N	0.154349	0.35649	0.953583
3	C	0.189497	0.366936	0.953218
4	N	0.198637	0.341278	0.953597
5	C	0.17394	0.306126	0.953241
6	N	0.139143	0.296998	0.953617
7	C	0.215803	0.402835	0.95845
8	C	0.183531	0.279825	0.958526
9	C	0.092785	0.312083	0.958489
10	O	0.156512	0.245698	0.959562
11	O	0.085663	0.339093	0.959489
12	O	0.249931	0.409945	0.959469
13	C	0.366051	0.174824	0.376601
14	N	0.340397	0.14002	0.042883
15	C	0.305241	0.129554	0.043267
16	N	0.296091	0.155204	0.042935
17	C	0.320782	0.190356	0.043313
18	N	0.355586	0.199512	0.042927
19	C	0.278965	0.093649	0.038016
20	C	0.311173	0.21665	0.038083
21	C	0.401945	0.184423	0.037979
22	O	0.338179	0.250783	0.037075
23	O	0.409062	0.157411	0.036925
24	O	0.244828	0.086509	0.037031
25	C	0.22668	0.216796	0.021755
26	C	0.210999	0.235534	0.00375
27	C	0.231212	0.267399	0.312754
28	C	0.26801	0.27965	0.30816
29	C	0.283696	0.26092	0.326181
30	C	0.263476	0.229041	0.017146
31	H	0.283876	0.302349	0.290587
32	H	0.184907	0.226196	0.01089
33	H	0.210822	0.194113	0.039363
34	H	0.309791	0.270269	0.319059
35	N	0.21807	0.287897	0.296142
36	H	0.235838	0.311889	0.287035
37	N	0.276629	0.208563	0.033791
38	H	0.258866	0.184567	0.042892
39	C	0.278833	0.00902	0.021665
40	C	0.260108	0.474607	0.003638
41	C	0.228234	0.462946	0.312662
42	C	0.215977	0.48749	0.308081
43	C	0.2347	0.021902	0.326109
44	C	0.266569	0.033559	0.017097
45	H	0.193274	0.480654	0.290511
46	H	0.269473	0.457872	0.010749
47	H	0.301541	0.015861	0.039227
48	H	0.225348	0.038647	0.318989
49	N	0.207733	0.429304	0.296058
50	H	0.183738	0.423076	0.286961
51	N	0.287064	0.067201	0.033704
52	H	0.311063	0.073439	0.042792
53	C	0.486578	0.268919	0.02164
54	C	0.021004	0.284607	0.003649
55	C	0.032681	0.264388	0.312714
56	C	0.008133	0.227593	0.308091
57	C	0.473696	0.211917	0.32604
58	C	0.462038	0.232121	0.01704
59	H	0.014981	0.211728	0.290539
60	H	0.03775	0.3107	0.010787
61	H	0.479746	0.28478	0.03923
62	H	0.456976	0.185803	0.318984
63	N	0.066325	0.277539	0.29611
64	H	0.07256	0.259777	0.287017
65	N	0.428406	0.218966	0.033687
66	H	0.422176	0.236727	0.04281
67	C	0.128683	0.321691	0.619895
68	N	0.154349	0.35649	0.286916
69	C	0.189497	0.366936	0.28655
70	N	0.198637	0.341278	0.286931
71	C	0.17394	0.306126	0.286573
72	N	0.139143	0.296998	0.286951
73	C	0.215803	0.402835	0.291782
74	C	0.183531	0.279825	0.291859
75	C	0.092785	0.312083	0.291821
76	O	0.156512	0.245698	0.292897
77	O	0.085663	0.339093	0.292822
78	O	0.249931	0.409945	0.292803
79	C	0.366051	0.174824	0.709934
80	N	0.340397	0.14002	0.376216
81	C	0.305241	0.129554	0.376601
82	N	0.296091	0.155204	0.376269
83	C	0.320782	0.190356	0.376648
84	N	0.355586	0.199512	0.376259
85	C	0.278965	0.093649	0.371349
86	C	0.311173	0.21665	0.371416
87	C	0.401945	0.184423	0.371313
88	O	0.338179	0.250783	0.370409
89	O	0.409062	0.157411	0.37026
90	O	0.244828	0.086509	0.370363
91	C	0.22668	0.216796	0.355087
92	C	0.210999	0.235534	0.337083
93	C	0.231212	0.267399	0.646089
94	C	0.26801	0.27965	0.641492
95	C	0.283696	0.26092	0.659515
96	C	0.263476	0.229041	0.35048
97	H	0.283876	0.302349	0.62392
98	H	0.184907	0.226196	0.344225
99	H	0.210822	0.194113	0.372695
100	H	0.309791	0.270269	0.652394
101	N	0.21807	0.287897	0.629474
102	H	0.235838	0.311889	0.62037
103	N	0.276629	0.208563	0.367124
104	H	0.258866	0.184567	0.376226
105	C	0.278833	0.00902	0.354997
106	C	0.260108	0.474607	0.336971
107	C	0.228234	0.462946	0.645996
108	C	0.215977	0.48749	0.641416
109	C	0.2347	0.021902	0.659442
110	C	0.266569	0.033559	0.35043
111	H	0.193274	0.480654	0.623844
112	H	0.269473	0.457872	0.344082
113	H	0.301541	0.015861	0.372562
114	H	0.225348	0.038647	0.652324
115	N	0.207733	0.429304	0.629391
116	H	0.183738	0.423076	0.620293
117	N	0.287064	0.067201	0.367038
118	H	0.311063	0.073439	0.376126
119	C	0.486578	0.268919	0.354974
120	C	0.021004	0.284607	0.33698
121	C	0.032681	0.264388	0.646046
122	C	0.008133	0.227593	0.641425
123	C	0.473696	0.211917	0.659372
124	C	0.462038	0.232121	0.350373
125	H	0.014981	0.211728	0.623874
126	H	0.03775	0.3107	0.344122
127	H	0.479746	0.28478	0.372562
128	H	0.456976	0.185803	0.652317
129	N	0.066325	0.277539	0.629444
130	H	0.07256	0.259777	0.62035
131	N	0.428406	0.218966	0.367021
132	H	0.422176	0.236727	0.376143
133	C	0.128683	0.321691	0.953228
134	N	0.154349	0.35649	0.62025
135	C	0.189497	0.366936	0.619885
136	N	0.198637	0.341278	0.620263
137	C	0.17394	0.306126	0.619908
138	N	0.139143	0.296998	0.620283
139	C	0.215803	0.402835	0.625116
140	C	0.183531	0.279825	0.625193
141	C	0.092785	0.312083	0.625156
142	O	0.156512	0.245698	0.626229
143	O	0.085663	0.339093	0.626156
144	O	0.249931	0.409945	0.626136
145	C	0.366051	0.174824	0.043268
146	N	0.340397	0.14002	0.709549
147	C	0.305241	0.129554	0.709934
148	N	0.296091	0.155204	0.709602
149	C	0.320782	0.190356	0.709981
150	N	0.355586	0.199512	0.709592
151	C	0.278965	0.093649	0.704683
152	C	0.311173	0.21665	0.704749
153	C	0.401945	0.184423	0.704646
154	O	0.338179	0.250783	0.703743
155	O	0.409062	0.157411	0.703593
156	O	0.244828	0.086509	0.703696
157	C	0.22668	0.216796	0.68842
158	C	0.210999	0.235534	0.670417
159	C	0.231212	0.267399	0.979422
160	C	0.26801	0.27965	0.974825
161	C	0.283696	0.26092	0.992848
162	C	0.263476	0.229041	0.683813
163	H	0.283876	0.302349	0.957254
164	H	0.184907	0.226196	0.677558
165	H	0.210822	0.194113	0.706028
166	H	0.309791	0.270269	0.985727
167	N	0.21807	0.287897	0.962808
168	H	0.235838	0.311889	0.953703
169	N	0.276629	0.208563	0.700458
170	H	0.258866	0.184567	0.709559
171	C	0.278833	0.00902	0.688334
172	C	0.260108	0.474607	0.670304
173	C	0.228234	0.462946	0.979329
174	C	0.215977	0.48749	0.974749
175	C	0.2347	0.021902	0.992775
176	C	0.266569	0.033559	0.683763
177	H	0.193274	0.480654	0.957177
178	H	0.269473	0.457872	0.677415
179	H	0.301541	0.015861	0.705895
180	H	0.225348	0.038647	0.985657
181	N	0.207733	0.429304	0.962724
182	H	0.183738	0.423076	0.953627
183	N	0.287064	0.067201	0.700371
184	H	0.311063	0.073439	0.709459
185	C	0.486578	0.268919	0.688307
186	C	0.021004	0.284607	0.670314
187	C	0.032681	0.264388	0.979379
188	C	0.008133	0.227593	0.974759
189	C	0.473696	0.211917	0.992706
190	C	0.462038	0.232121	0.683707
191	H	0.014981	0.211728	0.957207
192	H	0.03775	0.3107	0.677455
193	H	0.479746	0.28478	0.705895
194	H	0.456976	0.185803	0.98565
195	N	0.066325	0.277539	0.962778
196	H	0.07256	0.259777	0.953683
197	N	0.428406	0.218966	0.700355
198	H	0.422176	0.236727	0.709476
199	C	0.128682	0.82169	0.286563
200	N	0.15435	0.856489	0.953583
201	C	0.189497	0.866935	0.953218
202	N	0.198637	0.841277	0.953597
203	C	0.17394	0.806125	0.953241
204	N	0.139143	0.796997	0.953617
205	C	0.215803	0.902834	0.95845
206	C	0.18353	0.779824	0.958526
207	C	0.092783	0.812082	0.958489
208	O	0.156512	0.745698	0.959562
209	O	0.085663	0.839092	0.959489
210	O	0.249931	0.909944	0.959469
211	C	0.366051	0.674824	0.376601
212	N	0.340398	0.64002	0.042883
213	C	0.305242	0.629553	0.043267
214	N	0.29609	0.655203	0.042935
215	C	0.320781	0.690355	0.043313
216	N	0.355586	0.699512	0.042927
217	C	0.278965	0.593649	0.038016
218	C	0.311172	0.716648	0.038083
219	C	0.401945	0.684422	0.037979
220	O	0.338178	0.750782	0.037075
221	O	0.409061	0.657409	0.036925
222	O	0.244828	0.586509	0.037031
223	C	0.226679	0.716794	0.021755
224	C	0.210998	0.735533	0.00375
225	C	0.231211	0.767398	0.312754
226	C	0.26801	0.779648	0.30816
227	C	0.283695	0.76092	0.326181
228	C	0.263475	0.72904	0.017146
229	H	0.283877	0.802351	0.290587
230	H	0.184908	0.726196	0.01089
231	H	0.210823	0.694114	0.039363
232	H	0.309791	0.770268	0.319059
233	N	0.21807	0.787896	0.296142
234	H	0.235837	0.811887	0.287035
235	N	0.276629	0.708563	0.033791
236	H	0.258866	0.684566	0.042892
237	C	0.278834	0.50902	0.021665
238	C	0.260108	0.974606	0.003638
239	C	0.228233	0.962945	0.312662
240	C	0.215975	0.987489	0.308081
241	C	0.2347	0.521901	0.326109
242	C	0.26657	0.533559	0.017097
243	H	0.193274	0.980653	0.290511
244	H	0.269473	0.957871	0.010749
245	H	0.30154	0.515859	0.039227
246	H	0.225348	0.538646	0.318989
247	N	0.207733	0.929303	0.296058
248	H	0.183738	0.923075	0.286961
249	N	0.287063	0.567201	0.033704
250	H	0.311062	0.573437	0.042792
251	C	0.48658	0.768921	0.02164
252	C	0.021005	0.784606	0.003649
253	C	0.032682	0.764389	0.312714
254	C	0.008134	0.727594	0.308091
255	C	0.473695	0.711917	0.32604
256	C	0.462037	0.732121	0.01704
257	H	0.014981	0.711728	0.290539
258	H	0.037749	0.810699	0.010787
259	H	0.479745	0.784778	0.03923
260	H	0.456975	0.685802	0.318984
261	N	0.066326	0.777541	0.29611
262	H	0.072561	0.759777	0.287017
263	N	0.428405	0.718966	0.033687
264	H	0.422175	0.736727	0.04281
265	C	0.128682	0.82169	0.619895
266	N	0.15435	0.856489	0.286916
267	C	0.189497	0.866935	0.28655
268	N	0.198637	0.841277	0.286931
269	C	0.17394	0.806125	0.286573
270	N	0.139143	0.796997	0.286951
271	C	0.215803	0.902834	0.291782
272	C	0.18353	0.779824	0.291859
273	C	0.092783	0.812082	0.291821
274	O	0.156512	0.745698	0.292897
275	O	0.085663	0.839092	0.292822
276	O	0.249931	0.909944	0.292803
277	C	0.366051	0.674824	0.709934
278	N	0.340398	0.64002	0.376216
279	C	0.305242	0.629553	0.376601
280	N	0.29609	0.655203	0.376269
281	C	0.320781	0.690355	0.376648
282	N	0.355586	0.699512	0.376259
283	C	0.278965	0.593649	0.371349
284	C	0.311172	0.716648	0.371416
285	C	0.401945	0.684422	0.371313
286	O	0.338178	0.750782	0.370409
287	O	0.409061	0.657409	0.37026
288	O	0.244828	0.586509	0.370363
289	C	0.226679	0.716794	0.355087
290	C	0.210998	0.735533	0.337083
291	C	0.231211	0.767398	0.646089
292	C	0.26801	0.779648	0.641492
293	C	0.283695	0.76092	0.659515
294	C	0.263475	0.72904	0.35048
295	H	0.283877	0.802351	0.62392
296	H	0.184908	0.726196	0.344225
297	H	0.210823	0.694114	0.372695
298	H	0.309791	0.770268	0.652394
299	N	0.21807	0.787896	0.629474
300	H	0.235837	0.811887	0.62037
301	N	0.276629	0.708563	0.367124
302	H	0.258866	0.684566	0.376226
303	C	0.278834	0.50902	0.354997
304	C	0.260108	0.974606	0.336971
305	C	0.228233	0.962945	0.645996
306	C	0.215975	0.987489	0.641416
307	C	0.2347	0.521901	0.659442
308	C	0.26657	0.533559	0.35043
309	H	0.193274	0.980653	0.623844
310	H	0.269473	0.957871	0.344082
311	H	0.30154	0.515859	0.372562
312	H	0.225348	0.538646	0.652324
313	N	0.207733	0.929303	0.629391
314	H	0.183738	0.923075	0.620293
315	N	0.287063	0.567201	0.367038
316	H	0.311062	0.573437	0.376126
317	C	0.48658	0.768921	0.354974
318	C	0.021005	0.784606	0.33698
319	C	0.032682	0.764389	0.646046
320	C	0.008134	0.727594	0.641425
321	C	0.473695	0.711917	0.659372
322	C	0.462037	0.732121	0.350373
323	H	0.014981	0.711728	0.623874
324	H	0.037749	0.810699	0.344122
325	H	0.479745	0.784778	0.372562
326	H	0.456975	0.685802	0.652317
327	N	0.066326	0.777541	0.629444
328	H	0.072561	0.759777	0.62035
329	N	0.428405	0.718966	0.367021
330	H	0.422175	0.736727	0.376143
331	C	0.128682	0.82169	0.953228
332	N	0.15435	0.856489	0.62025
333	C	0.189497	0.866935	0.619885
334	N	0.198637	0.841277	0.620263
335	C	0.17394	0.806125	0.619908
336	N	0.139143	0.796997	0.620283
337	C	0.215803	0.902834	0.625116
338	C	0.18353	0.779824	0.625193
339	C	0.092783	0.812082	0.625156
340	O	0.156512	0.745698	0.626229
341	O	0.085663	0.839092	0.626156
342	O	0.249931	0.909944	0.626136
343	C	0.366051	0.674824	0.043268
344	N	0.340398	0.64002	0.709549
345	C	0.305242	0.629553	0.709934
346	N	0.29609	0.655203	0.709602
347	C	0.320781	0.690355	0.709981
348	N	0.355586	0.699512	0.709592
349	C	0.278965	0.593649	0.704683
350	C	0.311172	0.716648	0.704749
351	C	0.401945	0.684422	0.704646
352	O	0.338178	0.750782	0.703743
353	O	0.409061	0.657409	0.703593
354	O	0.244828	0.586509	0.703696
355	C	0.226679	0.716794	0.68842
356	C	0.210998	0.735533	0.670417
357	C	0.231211	0.767398	0.979422
358	C	0.26801	0.779648	0.974825
359	C	0.283695	0.76092	0.992848
360	C	0.263475	0.72904	0.683813
361	H	0.283877	0.802351	0.957254
362	H	0.184908	0.726196	0.677558
363	H	0.210823	0.694114	0.706028
364	H	0.309791	0.770268	0.985727
365	N	0.21807	0.787896	0.962808
366	H	0.235837	0.811887	0.953703
367	N	0.276629	0.708563	0.700458
368	H	0.258866	0.684566	0.709559
369	C	0.278834	0.50902	0.688334
370	C	0.260108	0.974606	0.670304
371	C	0.228233	0.962945	0.979329
372	C	0.215975	0.987489	0.974749
373	C	0.2347	0.521901	0.992775
374	C	0.26657	0.533559	0.683763
375	H	0.193274	0.980653	0.957177
376	H	0.269473	0.957871	0.677415
377	H	0.30154	0.515859	0.705895
378	H	0.225348	0.538646	0.985657
379	N	0.207733	0.929303	0.962724
380	H	0.183738	0.923075	0.953627
381	N	0.287063	0.567201	0.700371
382	H	0.311062	0.573437	0.709459
383	C	0.48658	0.768921	0.688307
384	C	0.021005	0.784606	0.670314
385	C	0.032682	0.764389	0.979379
386	C	0.008134	0.727594	0.974759
387	C	0.473695	0.711917	0.992706
388	C	0.462037	0.732121	0.683707
389	H	0.014981	0.711728	0.957207
390	H	0.037749	0.810699	0.677455
391	H	0.479745	0.784778	0.705895
392	H	0.456975	0.685802	0.98565
393	N	0.066326	0.777541	0.962778
394	H	0.072561	0.759777	0.953683
395	N	0.428405	0.718966	0.700355
396	H	0.422175	0.736727	0.709476
397	C	0.628683	0.321691	0.286563
398	N	0.654349	0.35649	0.953583
399	C	0.689497	0.366936	0.953218
400	N	0.698637	0.341278	0.953597
401	C	0.673939	0.306126	0.953241
402	N	0.639142	0.296998	0.953617
403	C	0.715802	0.402835	0.95845
404	C	0.683531	0.279825	0.958526
405	C	0.592785	0.312083	0.958489
406	O	0.656512	0.245698	0.959562
407	O	0.585663	0.339093	0.959489
408	O	0.749931	0.409945	0.959469
409	C	0.866051	0.174824	0.376601
410	N	0.840397	0.14002	0.042883
411	C	0.805241	0.129554	0.043267
412	N	0.79609	0.155204	0.042935
413	C	0.820781	0.190356	0.043313
414	N	0.855586	0.199512	0.042927
415	C	0.778965	0.093649	0.038016
416	C	0.811174	0.21665	0.038083
417	C	0.901945	0.184423	0.037979
418	O	0.838178	0.250783	0.037075
419	O	0.909062	0.157411	0.036925
420	O	0.744828	0.086509	0.037031
421	C	0.726679	0.216796	0.021755
422	C	0.710999	0.235534	0.00375
423	C	0.731213	0.267399	0.312754
424	C	0.768009	0.27965	0.30816
425	C	0.783696	0.26092	0.326181
426	C	0.763475	0.229041	0.017146
427	H	0.783875	0.302349	0.290587
428	H	0.684908	0.226196	0.01089
429	H	0.710822	0.194113	0.039363
430	H	0.809792	0.270269	0.319059
431	N	0.71807	0.287897	0.296142
432	H	0.735837	0.311889	0.287035
433	N	0.77663	0.208563	0.033791
434	H	0.758866	0.184567	0.042892
435	C	0.778833	0.00902	0.021665
436	C	0.760108	0.474607	0.003638
437	C	0.728234	0.462946	0.312662
438	C	0.715977	0.48749	0.308081
439	C	0.734701	0.021902	0.326109
440	C	0.766569	0.033559	0.017097
441	H	0.693274	0.480654	0.290511
442	H	0.769473	0.457872	0.010749
443	H	0.801541	0.015861	0.039227
444	H	0.725349	0.038647	0.318989
445	N	0.707732	0.429304	0.296058
446	H	0.683738	0.423076	0.286961
447	N	0.787064	0.067201	0.033704
448	H	0.811063	0.073439	0.042792
449	C	0.986578	0.268919	0.02164
450	C	0.521004	0.284607	0.003649
451	C	0.53268	0.264388	0.312714
452	C	0.508132	0.227593	0.308091
453	C	0.973696	0.211917	0.32604
454	C	0.962038	0.232121	0.01704
455	H	0.51498	0.211728	0.290539
456	H	0.53775	0.3107	0.010787
457	H	0.979746	0.28478	0.03923
458	H	0.956976	0.185803	0.318984
459	N	0.566324	0.277539	0.29611
460	H	0.572559	0.259777	0.287017
461	N	0.928406	0.218966	0.033687
462	H	0.922176	0.236727	0.04281
463	C	0.628683	0.321691	0.619895
464	N	0.654349	0.35649	0.286916
465	C	0.689497	0.366936	0.28655
466	N	0.698637	0.341278	0.286931
467	C	0.673939	0.306126	0.286573
468	N	0.639142	0.296998	0.286951
469	C	0.715802	0.402835	0.291782
470	C	0.683531	0.279825	0.291859
471	C	0.592785	0.312083	0.291821
472	O	0.656512	0.245698	0.292897
473	O	0.585663	0.339093	0.292822
474	O	0.749931	0.409945	0.292803
475	C	0.866051	0.174824	0.709934
476	N	0.840397	0.14002	0.376216
477	C	0.805241	0.129554	0.376601
478	N	0.79609	0.155204	0.376269
479	C	0.820781	0.190356	0.376648
480	N	0.855586	0.199512	0.376259
481	C	0.778965	0.093649	0.371349
482	C	0.811174	0.21665	0.371416
483	C	0.901945	0.184423	0.371313
484	O	0.838178	0.250783	0.370409
485	O	0.909062	0.157411	0.37026
486	O	0.744828	0.086509	0.370363
487	C	0.726679	0.216796	0.355087
488	C	0.710999	0.235534	0.337083
489	C	0.731213	0.267399	0.646089
490	C	0.768009	0.27965	0.641492
491	C	0.783696	0.26092	0.659515
492	C	0.763475	0.229041	0.35048
493	H	0.783875	0.302349	0.62392
494	H	0.684908	0.226196	0.344225
495	H	0.710822	0.194113	0.372695
496	H	0.809792	0.270269	0.652394
497	N	0.71807	0.287897	0.629474
498	H	0.735837	0.311889	0.62037
499	N	0.77663	0.208563	0.367124
500	H	0.758866	0.184567	0.376226
501	C	0.778833	0.00902	0.354997
502	C	0.760108	0.474607	0.336971
503	C	0.728234	0.462946	0.645996
504	C	0.715977	0.48749	0.641416
505	C	0.734701	0.021902	0.659442
506	C	0.766569	0.033559	0.35043
507	H	0.693274	0.480654	0.623844
508	H	0.769473	0.457872	0.344082
509	H	0.801541	0.015861	0.372562
510	H	0.725349	0.038647	0.652324
511	N	0.707732	0.429304	0.629391
512	H	0.683738	0.423076	0.620293
513	N	0.787064	0.067201	0.367038
514	H	0.811063	0.073439	0.376126
515	C	0.986578	0.268919	0.354974
516	C	0.521004	0.284607	0.33698
517	C	0.53268	0.264388	0.646046
518	C	0.508132	0.227593	0.641425
519	C	0.973696	0.211917	0.659372
520	C	0.962038	0.232121	0.350373
521	H	0.51498	0.211728	0.623874
522	H	0.53775	0.3107	0.344122
523	H	0.979746	0.28478	0.372562
524	H	0.956976	0.185803	0.652317
525	N	0.566324	0.277539	0.629444
526	H	0.572559	0.259777	0.62035
527	N	0.928406	0.218966	0.367021
528	H	0.922176	0.236727	0.376143
529	C	0.628683	0.321691	0.953228
530	N	0.654349	0.35649	0.62025
531	C	0.689497	0.366936	0.619885
532	N	0.698637	0.341278	0.620263
533	C	0.673939	0.306126	0.619908
534	N	0.639142	0.296998	0.620283
535	C	0.715802	0.402835	0.625116
536	C	0.683531	0.279825	0.625193
537	C	0.592785	0.312083	0.625156
538	O	0.656512	0.245698	0.626229
539	O	0.585663	0.339093	0.626156
540	O	0.749931	0.409945	0.626136
541	C	0.866051	0.174824	0.043268
542	N	0.840397	0.14002	0.709549
543	C	0.805241	0.129554	0.709934
544	N	0.79609	0.155204	0.709602
545	C	0.820781	0.190356	0.709981
546	N	0.855586	0.199512	0.709592
547	C	0.778965	0.093649	0.704683
548	C	0.811174	0.21665	0.704749
549	C	0.901945	0.184423	0.704646
550	O	0.838178	0.250783	0.703743
551	O	0.909062	0.157411	0.703593
552	O	0.744828	0.086509	0.703696
553	C	0.726679	0.216796	0.68842
554	C	0.710999	0.235534	0.670417
555	C	0.731213	0.267399	0.979422
556	C	0.768009	0.27965	0.974825
557	C	0.783696	0.26092	0.992848
558	C	0.763475	0.229041	0.683813
559	H	0.783875	0.302349	0.957254
560	H	0.684908	0.226196	0.677558
561	H	0.710822	0.194113	0.706028
562	H	0.809792	0.270269	0.985727
563	N	0.71807	0.287897	0.962808
564	H	0.735837	0.311889	0.953703
565	N	0.77663	0.208563	0.700458
566	H	0.758866	0.184567	0.709559
567	C	0.778833	0.00902	0.688334
568	C	0.760108	0.474607	0.670304
569	C	0.728234	0.462946	0.979329
570	C	0.715977	0.48749	0.974749
571	C	0.734701	0.021902	0.992775
572	C	0.766569	0.033559	0.683763
573	H	0.693274	0.480654	0.957177
574	H	0.769473	0.457872	0.677415
575	H	0.801541	0.015861	0.705895
576	H	0.725349	0.038647	0.985657
577	N	0.707732	0.429304	0.962724
578	H	0.683738	0.423076	0.953627
579	N	0.787064	0.067201	0.700371
580	H	0.811063	0.073439	0.709459
581	C	0.986578	0.268919	0.688307
582	C	0.521004	0.284607	0.670314
583	C	0.53268	0.264388	0.979379
584	C	0.508132	0.227593	0.974759
585	C	0.973696	0.211917	0.992706
586	C	0.962038	0.232121	0.683707
587	H	0.51498	0.211728	0.957207
588	H	0.53775	0.3107	0.677455
589	H	0.979746	0.28478	0.705895
590	H	0.956976	0.185803	0.98565
591	N	0.566324	0.277539	0.962778
592	H	0.572559	0.259777	0.953683
593	N	0.928406	0.218966	0.700355
594	H	0.922176	0.236727	0.709476
595	C	0.628683	0.82169	0.286563
596	N	0.654349	0.856489	0.953583
597	C	0.689497	0.866935	0.953218
598	N	0.698636	0.841277	0.953597
599	C	0.67394	0.806125	0.953241
600	N	0.639143	0.796997	0.953617
601	C	0.715803	0.902834	0.95845
602	C	0.68353	0.779824	0.958526
603	C	0.592784	0.812082	0.958489
604	O	0.656513	0.745698	0.959562
605	O	0.585662	0.839092	0.959489
606	O	0.74993	0.909944	0.959469
607	C	0.86605	0.674824	0.376601
608	N	0.840398	0.64002	0.042883
609	C	0.805242	0.629553	0.043267
610	N	0.796091	0.655203	0.042935
611	C	0.820782	0.690355	0.043313
612	N	0.855584	0.699512	0.042927
613	C	0.778966	0.593649	0.038016
614	C	0.811172	0.716648	0.038083
615	C	0.901946	0.684422	0.037979
616	O	0.838179	0.750782	0.037075
617	O	0.909062	0.657409	0.036925
618	O	0.744827	0.586509	0.037031
619	C	0.72668	0.716794	0.021755
620	C	0.710997	0.735533	0.00375
621	C	0.731211	0.767398	0.312754
622	C	0.768009	0.779648	0.30816
623	C	0.783695	0.76092	0.326181
624	C	0.763475	0.72904	0.017146
625	H	0.783877	0.802351	0.290587
626	H	0.684907	0.726196	0.01089
627	H	0.710823	0.694114	0.039363
628	H	0.80979	0.770268	0.319059
629	N	0.718071	0.787896	0.296142
630	H	0.735837	0.811887	0.287035
631	N	0.776629	0.708563	0.033791
632	H	0.758866	0.684566	0.042892
633	C	0.778834	0.50902	0.021665
634	C	0.760107	0.974606	0.003638
635	C	0.728233	0.962945	0.312662
636	C	0.715976	0.987489	0.308081
637	C	0.734699	0.521901	0.326109
638	C	0.76657	0.533559	0.017097
639	H	0.693273	0.980653	0.290511
640	H	0.769473	0.957871	0.010749
641	H	0.801539	0.515859	0.039227
642	H	0.725348	0.538646	0.318989
643	N	0.707733	0.929303	0.296058
644	H	0.683737	0.923075	0.286961
645	N	0.787063	0.567201	0.033704
646	H	0.811061	0.573437	0.042792
647	C	0.98658	0.768921	0.02164
648	C	0.521004	0.784606	0.003649
649	C	0.532681	0.764389	0.312714
650	C	0.508133	0.727594	0.308091
651	C	0.973694	0.711917	0.32604
652	C	0.962036	0.732121	0.01704
653	H	0.514981	0.711728	0.290539
654	H	0.537749	0.810699	0.010787
655	H	0.979744	0.784778	0.03923
656	H	0.956974	0.685802	0.318984
657	N	0.566326	0.777541	0.29611
658	H	0.57256	0.759777	0.287017
659	N	0.928404	0.718966	0.033687
660	H	0.922175	0.736727	0.04281
661	C	0.628683	0.82169	0.619895
662	N	0.654349	0.856489	0.286916
663	C	0.689497	0.866935	0.28655
664	N	0.698636	0.841277	0.286931
665	C	0.67394	0.806125	0.286573
666	N	0.639143	0.796997	0.286951
667	C	0.715803	0.902834	0.291782
668	C	0.68353	0.779824	0.291859
669	C	0.592784	0.812082	0.291821
670	O	0.656513	0.745698	0.292897
671	O	0.585662	0.839092	0.292822
672	O	0.74993	0.909944	0.292803
673	C	0.86605	0.674824	0.709934
674	N	0.840398	0.64002	0.376216
675	C	0.805242	0.629553	0.376601
676	N	0.796091	0.655203	0.376269
677	C	0.820782	0.690355	0.376648
678	N	0.855584	0.699512	0.376259
679	C	0.778966	0.593649	0.371349
680	C	0.811172	0.716648	0.371416
681	C	0.901946	0.684422	0.371313
682	O	0.838179	0.750782	0.370409
683	O	0.909062	0.657409	0.37026
684	O	0.744827	0.586509	0.370363
685	C	0.72668	0.716794	0.355087
686	C	0.710997	0.735533	0.337083
687	C	0.731211	0.767398	0.646089
688	C	0.768009	0.779648	0.641492
689	C	0.783695	0.76092	0.659515
690	C	0.763475	0.72904	0.35048
691	H	0.783877	0.802351	0.62392
692	H	0.684907	0.726196	0.344225
693	H	0.710823	0.694114	0.372695
694	H	0.80979	0.770268	0.652394
695	N	0.718071	0.787896	0.629474
696	H	0.735837	0.811887	0.62037
697	N	0.776629	0.708563	0.367124
698	H	0.758866	0.684566	0.376226
699	C	0.778834	0.50902	0.354997
700	C	0.760107	0.974606	0.336971
701	C	0.728233	0.962945	0.645996
702	C	0.715976	0.987489	0.641416
703	C	0.734699	0.521901	0.659442
704	C	0.76657	0.533559	0.35043
705	H	0.693273	0.980653	0.623844
706	H	0.769473	0.957871	0.344082
707	H	0.801539	0.515859	0.372562
708	H	0.725348	0.538646	0.652324
709	N	0.707733	0.929303	0.629391
710	H	0.683737	0.923075	0.620293
711	N	0.787063	0.567201	0.367038
712	H	0.811061	0.573437	0.376126
713	C	0.98658	0.768921	0.354974
714	C	0.521004	0.784606	0.33698
715	C	0.532681	0.764389	0.646046
716	C	0.508133	0.727594	0.641425
717	C	0.973694	0.711917	0.659372
718	C	0.962036	0.732121	0.350373
719	H	0.514981	0.711728	0.623874
720	H	0.537749	0.810699	0.344122
721	H	0.979744	0.784778	0.372562
722	H	0.956974	0.685802	0.652317
723	N	0.566326	0.777541	0.629444
724	H	0.57256	0.759777	0.62035
725	N	0.928404	0.718966	0.367021
726	H	0.922175	0.736727	0.376143
727	C	0.628683	0.82169	0.953228
728	N	0.654349	0.856489	0.62025
729	C	0.689497	0.866935	0.619885
730	N	0.698636	0.841277	0.620263
731	C	0.67394	0.806125	0.619908
732	N	0.639143	0.796997	0.620283
733	C	0.715803	0.902834	0.625116
734	C	0.68353	0.779824	0.625193
735	C	0.592784	0.812082	0.625156
736	O	0.656513	0.745698	0.626229
737	O	0.585662	0.839092	0.626156
738	O	0.74993	0.909944	0.626136
739	C	0.86605	0.674824	0.043268
740	N	0.840398	0.64002	0.709549
741	C	0.805242	0.629553	0.709934
742	N	0.796091	0.655203	0.709602
743	C	0.820782	0.690355	0.709981
744	N	0.855584	0.699512	0.709592
745	C	0.778966	0.593649	0.704683
746	C	0.811172	0.716648	0.704749
747	C	0.901946	0.684422	0.704646
748	O	0.838179	0.750782	0.703743
749	O	0.909062	0.657409	0.703593
750	O	0.744827	0.586509	0.703696
751	C	0.72668	0.716794	0.68842
752	C	0.710997	0.735533	0.670417
753	C	0.731211	0.767398	0.979422
754	C	0.768009	0.779648	0.974825
755	C	0.783695	0.76092	0.992848
756	C	0.763475	0.72904	0.683813
757	H	0.783877	0.802351	0.957254
758	H	0.684907	0.726196	0.677558
759	H	0.710823	0.694114	0.706028
760	H	0.80979	0.770268	0.985727
761	N	0.718071	0.787896	0.962808
762	H	0.735837	0.811887	0.953703
763	N	0.776629	0.708563	0.700458
764	H	0.758866	0.684566	0.709559
765	C	0.778834	0.50902	0.688334
766	C	0.760107	0.974606	0.670304
767	C	0.728233	0.962945	0.979329
768	C	0.715976	0.987489	0.974749
769	C	0.734699	0.521901	0.992775
770	C	0.76657	0.533559	0.683763
771	H	0.693273	0.980653	0.957177
772	H	0.769473	0.957871	0.677415
773	H	0.801539	0.515859	0.705895
774	H	0.725348	0.538646	0.985657
775	N	0.707733	0.929303	0.962724
776	H	0.683737	0.923075	0.953627
777	N	0.787063	0.567201	0.700371
778	H	0.811061	0.573437	0.709459
779	C	0.98658	0.768921	0.688307
780	C	0.521004	0.784606	0.670314
781	C	0.532681	0.764389	0.979379
782	C	0.508133	0.727594	0.974759
783	C	0.973694	0.711917	0.992706
784	C	0.962036	0.732121	0.683707
785	H	0.514981	0.711728	0.957207
786	H	0.537749	0.810699	0.677455
787	H	0.979744	0.784778	0.705895
788	H	0.956974	0.685802	0.98565
789	N	0.566326	0.777541	0.962778
790	H	0.57256	0.759777	0.953683
791	N	0.928404	0.718966	0.700355
792	H	0.922175	0.736727	0.709476
