data_C288H144N72_2018-02-15_10:38:33
#******************************************
#
# CIF file created by Zeo++
# Zeo++ is an open source package to
# analyze microporous materials
#
#*******************************************

_cell_length_a		28.9738   
_cell_length_b		28.9738   
_cell_length_c		29.4698   
_cell_angle_alpha		90   
_cell_angle_beta		90   
_cell_angle_gamma		120   

_symmetry_space_group_name_H-M		'P1'
_symmetry_Int_Tables_number		1
_symmetry_cell_setting		Monoclinic

loop_
_symmetry_equiv_pos_as_xyz
'+x,+y,+z'

loop_
_atom_site_label
_atom_site_type_symbol
_atom_site_fract_x
_atom_site_fract_y
_atom_site_fract_z
1	C	0.125867	0.315184	0.009266
2	C	0.041574	0.273037	0.050618
3	C	0.07005	0.287276	0.009283
4	C	0.041538	0.273019	0.3013
5	H	0.061371	0.282936	0.270934
6	H	0.061433	0.282967	0.080971
7	C	0.125867	0.315184	0.342598
8	C	0.041574	0.273037	0.383952
9	C	0.07005	0.287276	0.342618
10	C	0.041538	0.273019	0.634632
11	H	0.061371	0.282936	0.604269
12	H	0.061433	0.282967	0.414305
13	C	0.125867	0.315184	0.675932
14	C	0.041574	0.273037	0.717286
15	C	0.07005	0.287276	0.675949
16	C	0.041538	0.273019	0.967967
17	H	0.061371	0.282936	0.9376
18	H	0.061433	0.282967	0.74764
19	C	0.125868	0.815184	0.009266
20	C	0.041576	0.773039	0.050618
21	C	0.070049	0.787275	0.009283
22	C	0.041539	0.773019	0.3013
23	H	0.06137	0.782935	0.270934
24	H	0.061433	0.782967	0.080971
25	C	0.125868	0.815184	0.342598
26	C	0.041576	0.773039	0.383952
27	C	0.070049	0.787275	0.342618
28	C	0.041539	0.773019	0.634632
29	H	0.06137	0.782935	0.604269
30	H	0.061433	0.782967	0.414305
31	C	0.125868	0.815184	0.675932
32	C	0.041576	0.773039	0.717286
33	C	0.070049	0.787275	0.675949
34	C	0.041539	0.773019	0.967967
35	H	0.06137	0.782935	0.9376
36	H	0.061433	0.782967	0.74764
37	C	0.207305	0.39662	0.009266
38	N	0.153157	0.369333	0.009269
39	N	0.153155	0.288324	0.00927
40	C	0.207303	0.315181	0.009266
41	N	0.234163	0.36933	0.009269
42	C	0.249451	0.273034	0.050618
43	C	0.235211	0.287271	0.009283
44	C	0.249468	0.273017	0.3013
45	H	0.239552	0.282932	0.270935
46	H	0.23952	0.282963	0.080971
47	C	0.249452	0.480914	0.050618
48	C	0.235215	0.452439	0.009283
49	C	0.24947	0.48095	0.3013
50	H	0.239554	0.461119	0.270934
51	H	0.239523	0.461055	0.080971
52	C	0.207305	0.39662	0.342598
53	N	0.153157	0.369333	0.342601
54	N	0.153155	0.288324	0.342605
55	C	0.207303	0.315181	0.342601
56	N	0.234163	0.36933	0.342601
57	C	0.249451	0.273034	0.383952
58	C	0.235211	0.287271	0.342618
59	C	0.249468	0.273017	0.634632
60	H	0.239552	0.282932	0.604269
61	H	0.23952	0.282963	0.414305
62	C	0.249452	0.480914	0.383952
63	C	0.235215	0.452439	0.342618
64	C	0.24947	0.48095	0.634632
65	H	0.239554	0.461119	0.604269
66	H	0.239523	0.461055	0.414305
67	C	0.207305	0.39662	0.675932
68	N	0.153157	0.369333	0.675936
69	N	0.153155	0.288324	0.675936
70	C	0.207303	0.315181	0.675932
71	N	0.234163	0.36933	0.675936
72	C	0.249451	0.273034	0.717286
73	C	0.235211	0.287271	0.675949
74	C	0.249468	0.273017	0.967967
75	H	0.239552	0.282932	0.937603
76	H	0.23952	0.282963	0.74764
77	C	0.249452	0.480914	0.717286
78	C	0.235215	0.452439	0.675949
79	C	0.24947	0.48095	0.967967
80	H	0.239554	0.461119	0.9376
81	H	0.239523	0.461055	0.74764
82	C	0.207306	0.896621	0.009266
83	N	0.153158	0.869333	0.009269
84	N	0.153155	0.788323	0.00927
85	C	0.207303	0.81518	0.009266
86	N	0.234163	0.869329	0.009269
87	C	0.249451	0.773035	0.050618
88	C	0.235211	0.787271	0.009283
89	C	0.249468	0.773015	0.3013
90	H	0.239551	0.782931	0.270935
91	H	0.239521	0.782963	0.080971
92	C	0.249453	0.980914	0.050618
93	C	0.235215	0.952439	0.009283
94	C	0.24947	0.98095	0.3013
95	H	0.239555	0.961119	0.270934
96	H	0.239523	0.961055	0.080971
97	C	0.207306	0.896621	0.342598
98	N	0.153158	0.869333	0.342601
99	N	0.153155	0.788323	0.342605
100	C	0.207303	0.81518	0.342601
101	N	0.234163	0.869329	0.342601
102	C	0.249451	0.773035	0.383952
103	C	0.235211	0.787271	0.342618
104	C	0.249468	0.773015	0.634632
105	H	0.239551	0.782931	0.604269
106	H	0.239521	0.782963	0.414305
107	C	0.249453	0.980914	0.383952
108	C	0.235215	0.952439	0.342618
109	C	0.24947	0.98095	0.634632
110	H	0.239555	0.961119	0.604269
111	H	0.239523	0.961055	0.414305
112	C	0.207306	0.896621	0.675932
113	N	0.153158	0.869333	0.675936
114	N	0.153155	0.788323	0.675936
115	C	0.207303	0.81518	0.675932
116	N	0.234163	0.869329	0.675936
117	C	0.249451	0.773035	0.717286
118	C	0.235211	0.787271	0.675949
119	C	0.249468	0.773015	0.967967
120	H	0.239551	0.782931	0.937603
121	H	0.239521	0.782963	0.74764
122	C	0.249453	0.980914	0.717286
123	C	0.235215	0.952439	0.675949
124	C	0.24947	0.98095	0.967967
125	H	0.239555	0.961119	0.9376
126	H	0.239523	0.961055	0.74764
127	C	0.31968	0.12137	0.009336
128	N	0.373828	0.148658	0.009333
129	C	0.401118	0.202806	0.009336
130	N	0.37383	0.229667	0.009333
131	C	0.319682	0.202809	0.009336
132	N	0.292822	0.148661	0.009333
133	C	0.277516	0.244973	0.050636
134	C	0.277535	0.244956	0.301318
135	C	0.291774	0.230719	0.009319
136	H	0.287433	0.235058	0.081001
137	H	0.287464	0.235027	0.270965
138	C	0.277515	0.037041	0.050636
139	C	0.277533	0.037077	0.301318
140	C	0.291771	0.065552	0.009319
141	H	0.287432	0.056873	0.081002
142	H	0.287463	0.056935	0.270965
143	C	0.485448	0.244971	0.050636
144	C	0.485411	0.244953	0.301318
145	C	0.456935	0.230714	0.009319
146	H	0.465614	0.235054	0.081002
147	H	0.46555	0.235023	0.270965
148	C	0.31968	0.12137	0.342669
149	N	0.373828	0.148658	0.342666
150	C	0.401118	0.202806	0.342669
151	N	0.37383	0.229667	0.342666
152	C	0.319682	0.202809	0.342669
153	N	0.292822	0.148661	0.342666
154	C	0.277516	0.244973	0.383969
155	C	0.277535	0.244956	0.634653
156	C	0.291774	0.230719	0.342652
157	H	0.287433	0.235058	0.414336
158	H	0.287464	0.235027	0.6043
159	C	0.277515	0.037041	0.383969
160	C	0.277533	0.037077	0.634653
161	C	0.291771	0.065552	0.342652
162	H	0.287432	0.056873	0.414336
163	H	0.287463	0.056935	0.6043
164	C	0.485448	0.244971	0.383969
165	C	0.485411	0.244953	0.634653
166	C	0.456935	0.230714	0.342652
167	H	0.465614	0.235054	0.414336
168	H	0.46555	0.235023	0.6043
169	C	0.31968	0.12137	0.676003
170	N	0.373828	0.148658	0.676
171	C	0.401118	0.202806	0.676003
172	N	0.37383	0.229667	0.676
173	C	0.319682	0.202809	0.676003
174	N	0.292822	0.148661	0.676
175	C	0.277516	0.244973	0.717303
176	C	0.277535	0.244956	0.967984
177	C	0.291774	0.230719	0.675987
178	H	0.287433	0.235058	0.74767
179	H	0.287464	0.235027	0.93763
180	C	0.277515	0.037041	0.717303
181	C	0.277533	0.037077	0.967984
182	C	0.291771	0.065552	0.675987
183	H	0.287432	0.056873	0.74767
184	H	0.287463	0.056935	0.93763
185	C	0.485448	0.244971	0.717303
186	C	0.485411	0.244953	0.967984
187	C	0.456935	0.230714	0.675987
188	H	0.465614	0.235054	0.74767
189	H	0.46555	0.235023	0.93763
190	C	0.31968	0.621369	0.009336
191	N	0.373828	0.648657	0.009333
192	C	0.401118	0.702806	0.009336
193	N	0.373831	0.729667	0.009333
194	C	0.319683	0.70281	0.009336
195	N	0.292823	0.648661	0.009333
196	C	0.277517	0.744975	0.050636
197	C	0.277534	0.744955	0.301318
198	C	0.291774	0.730719	0.009319
199	H	0.287434	0.735059	0.081001
200	H	0.287465	0.735027	0.270965
201	C	0.277515	0.53704	0.050636
202	C	0.277533	0.537076	0.301318
203	C	0.29177	0.565551	0.009319
204	H	0.287433	0.556875	0.081002
205	H	0.287463	0.556935	0.270965
206	C	0.485447	0.744971	0.050636
207	C	0.485412	0.744955	0.301318
208	C	0.456936	0.730715	0.009319
209	H	0.465615	0.735055	0.081002
210	H	0.465552	0.735023	0.270965
211	C	0.31968	0.621369	0.342669
212	N	0.373828	0.648657	0.342666
213	C	0.401118	0.702806	0.342669
214	N	0.373831	0.729667	0.342666
215	C	0.319683	0.70281	0.342669
216	N	0.292823	0.648661	0.342666
217	C	0.277517	0.744975	0.383969
218	C	0.277534	0.744955	0.634653
219	C	0.291774	0.730719	0.342652
220	H	0.287434	0.735059	0.414336
221	H	0.287465	0.735027	0.6043
222	C	0.277515	0.53704	0.383969
223	C	0.277533	0.537076	0.634653
224	C	0.29177	0.565551	0.342652
225	H	0.287433	0.556875	0.414336
226	H	0.287463	0.556935	0.6043
227	C	0.485447	0.744971	0.383969
228	C	0.485412	0.744955	0.634653
229	C	0.456936	0.730715	0.342652
230	H	0.465615	0.735055	0.414336
231	H	0.465552	0.735023	0.6043
232	C	0.31968	0.621369	0.676003
233	N	0.373828	0.648657	0.676
234	C	0.401118	0.702806	0.676003
235	N	0.373831	0.729667	0.676
236	C	0.319683	0.70281	0.676003
237	N	0.292823	0.648661	0.676
238	C	0.277517	0.744975	0.717303
239	C	0.277534	0.744955	0.967984
240	C	0.291774	0.730719	0.675987
241	H	0.287434	0.735059	0.74767
242	H	0.287465	0.735027	0.93763
243	C	0.277515	0.53704	0.717303
244	C	0.277533	0.537076	0.967984
245	C	0.29177	0.565551	0.675987
246	H	0.287433	0.556875	0.74767
247	H	0.287463	0.556935	0.93763
248	C	0.485447	0.744971	0.717303
249	C	0.485412	0.744955	0.967984
250	C	0.456936	0.730715	0.675987
251	H	0.465615	0.735055	0.74767
252	H	0.465552	0.735023	0.93763
253	C	0.707304	0.39662	0.009266
254	N	0.653155	0.369333	0.009269
255	C	0.625867	0.315184	0.009266
256	N	0.653153	0.288324	0.00927
257	C	0.707301	0.315181	0.009266
258	N	0.734161	0.36933	0.009269
259	C	0.819678	0.12137	0.009336
260	N	0.873827	0.148658	0.009333
261	C	0.901119	0.202806	0.009336
262	N	0.873829	0.229667	0.009333
263	C	0.819681	0.202809	0.009336
264	N	0.792821	0.148661	0.009333
265	C	0.777516	0.244973	0.050636
266	C	0.74945	0.273034	0.050618
267	C	0.735211	0.287271	0.009283
268	C	0.749469	0.273017	0.3013
269	C	0.777535	0.244956	0.301318
270	C	0.791774	0.230719	0.009319
271	H	0.739551	0.282932	0.270935
272	H	0.739518	0.282963	0.080971
273	H	0.787434	0.235058	0.081001
274	H	0.787464	0.235027	0.270965
275	C	0.777513	0.037041	0.050636
276	C	0.749451	0.480914	0.050618
277	C	0.735214	0.452439	0.009283
278	C	0.749469	0.48095	0.3013
279	C	0.777531	0.037077	0.301318
280	C	0.791769	0.065552	0.009319
281	H	0.739554	0.461119	0.270934
282	H	0.739522	0.461055	0.080971
283	H	0.787433	0.056873	0.081002
284	H	0.78746	0.056935	0.270965
285	C	0.985444	0.244971	0.050636
286	C	0.541574	0.273037	0.050618
287	C	0.570048	0.287276	0.009283
288	C	0.541538	0.273019	0.3013
289	C	0.985411	0.244953	0.301318
290	C	0.956934	0.230714	0.009319
291	H	0.561372	0.282936	0.270934
292	H	0.561432	0.282967	0.080971
293	H	0.965614	0.235054	0.081002
294	H	0.96555	0.235023	0.270965
295	C	0.707304	0.39662	0.342598
296	N	0.653155	0.369333	0.342601
297	C	0.625867	0.315184	0.342598
298	N	0.653153	0.288324	0.342605
299	C	0.707301	0.315181	0.342601
300	N	0.734161	0.36933	0.342601
301	C	0.819678	0.12137	0.342669
302	N	0.873827	0.148658	0.342666
303	C	0.901119	0.202806	0.342669
304	N	0.873829	0.229667	0.342666
305	C	0.819681	0.202809	0.342669
306	N	0.792821	0.148661	0.342666
307	C	0.777516	0.244973	0.383969
308	C	0.74945	0.273034	0.383952
309	C	0.735211	0.287271	0.342618
310	C	0.749469	0.273017	0.634632
311	C	0.777535	0.244956	0.634653
312	C	0.791774	0.230719	0.342652
313	H	0.739551	0.282932	0.604269
314	H	0.739518	0.282963	0.414305
315	H	0.787434	0.235058	0.414336
316	H	0.787464	0.235027	0.6043
317	C	0.777513	0.037041	0.383969
318	C	0.749451	0.480914	0.383952
319	C	0.735214	0.452439	0.342618
320	C	0.749469	0.48095	0.634632
321	C	0.777531	0.037077	0.634653
322	C	0.791769	0.065552	0.342652
323	H	0.739554	0.461119	0.604269
324	H	0.739522	0.461055	0.414305
325	H	0.787433	0.056873	0.414336
326	H	0.78746	0.056935	0.6043
327	C	0.985444	0.244971	0.383969
328	C	0.541574	0.273037	0.383952
329	C	0.570048	0.287276	0.342618
330	C	0.541538	0.273019	0.634632
331	C	0.985411	0.244953	0.634653
332	C	0.956934	0.230714	0.342652
333	H	0.561372	0.282936	0.604269
334	H	0.561432	0.282967	0.414305
335	H	0.965614	0.235054	0.414336
336	H	0.96555	0.235023	0.6043
337	C	0.707304	0.39662	0.675932
338	N	0.653155	0.369333	0.675936
339	C	0.625867	0.315184	0.675932
340	N	0.653153	0.288324	0.675936
341	C	0.707301	0.315181	0.675932
342	N	0.734161	0.36933	0.675936
343	C	0.819678	0.12137	0.676003
344	N	0.873827	0.148658	0.676
345	C	0.901119	0.202806	0.676003
346	N	0.873829	0.229667	0.676
347	C	0.819681	0.202809	0.676003
348	N	0.792821	0.148661	0.676
349	C	0.777516	0.244973	0.717303
350	C	0.74945	0.273034	0.717286
351	C	0.735211	0.287271	0.675949
352	C	0.749469	0.273017	0.967967
353	C	0.777535	0.244956	0.967984
354	C	0.791774	0.230719	0.675987
355	H	0.739551	0.282932	0.937603
356	H	0.739518	0.282963	0.74764
357	H	0.787434	0.235058	0.74767
358	H	0.787464	0.235027	0.93763
359	C	0.777513	0.037041	0.717303
360	C	0.749451	0.480914	0.717286
361	C	0.735214	0.452439	0.675949
362	C	0.749469	0.48095	0.967967
363	C	0.777531	0.037077	0.967984
364	C	0.791769	0.065552	0.675987
365	H	0.739554	0.461119	0.9376
366	H	0.739522	0.461055	0.74764
367	H	0.787433	0.056873	0.74767
368	H	0.78746	0.056935	0.93763
369	C	0.985444	0.244971	0.717303
370	C	0.541574	0.273037	0.717286
371	C	0.570048	0.287276	0.675949
372	C	0.541538	0.273019	0.967967
373	C	0.985411	0.244953	0.967984
374	C	0.956934	0.230714	0.675987
375	H	0.561372	0.282936	0.9376
376	H	0.561432	0.282967	0.74764
377	H	0.965614	0.235054	0.74767
378	H	0.96555	0.235023	0.93763
379	C	0.707305	0.896621	0.009266
380	N	0.653157	0.869333	0.009269
381	C	0.625867	0.815184	0.009266
382	N	0.653154	0.788323	0.00927
383	C	0.707302	0.81518	0.009266
384	N	0.734162	0.869329	0.009269
385	C	0.819679	0.621369	0.009336
386	N	0.873828	0.648657	0.009333
387	C	0.901117	0.702806	0.009336
388	N	0.873831	0.729667	0.009333
389	C	0.819683	0.70281	0.009336
390	N	0.792823	0.648661	0.009333
391	C	0.777515	0.744975	0.050636
392	C	0.749449	0.773035	0.050618
393	C	0.73521	0.787271	0.009283
394	C	0.749467	0.773015	0.3013
395	C	0.777533	0.744955	0.301318
396	C	0.791772	0.730719	0.009319
397	H	0.739549	0.782931	0.270935
398	H	0.73952	0.782963	0.080971
399	H	0.787433	0.735059	0.081001
400	H	0.787465	0.735027	0.270965
401	C	0.777514	0.53704	0.050636
402	C	0.749452	0.980914	0.050618
403	C	0.735215	0.952439	0.009283
404	C	0.749469	0.98095	0.3013
405	C	0.777532	0.537076	0.301318
406	C	0.79177	0.565551	0.009319
407	H	0.739554	0.961119	0.270934
408	H	0.739522	0.961055	0.080971
409	H	0.787432	0.556875	0.081002
410	H	0.787462	0.556935	0.270965
411	C	0.985446	0.744971	0.050636
412	C	0.541575	0.773039	0.050618
413	C	0.570049	0.787275	0.009283
414	C	0.541538	0.773019	0.3013
415	C	0.98541	0.744955	0.301318
416	C	0.956937	0.730715	0.009319
417	H	0.56137	0.782935	0.270934
418	H	0.561432	0.782967	0.080971
419	H	0.965613	0.735055	0.081002
420	H	0.965552	0.735023	0.270965
421	C	0.707305	0.896621	0.342598
422	N	0.653157	0.869333	0.342601
423	C	0.625867	0.815184	0.342598
424	N	0.653154	0.788323	0.342605
425	C	0.707302	0.81518	0.342601
426	N	0.734162	0.869329	0.342601
427	C	0.819679	0.621369	0.342669
428	N	0.873828	0.648657	0.342666
429	C	0.901117	0.702806	0.342669
430	N	0.873831	0.729667	0.342666
431	C	0.819683	0.70281	0.342669
432	N	0.792823	0.648661	0.342666
433	C	0.777515	0.744975	0.383969
434	C	0.749449	0.773035	0.383952
435	C	0.73521	0.787271	0.342618
436	C	0.749467	0.773015	0.634632
437	C	0.777533	0.744955	0.634653
438	C	0.791772	0.730719	0.342652
439	H	0.739549	0.782931	0.604269
440	H	0.73952	0.782963	0.414305
441	H	0.787433	0.735059	0.414336
442	H	0.787465	0.735027	0.6043
443	C	0.777514	0.53704	0.383969
444	C	0.749452	0.980914	0.383952
445	C	0.735215	0.952439	0.342618
446	C	0.749469	0.98095	0.634632
447	C	0.777532	0.537076	0.634653
448	C	0.79177	0.565551	0.342652
449	H	0.739554	0.961119	0.604269
450	H	0.739522	0.961055	0.414305
451	H	0.787432	0.556875	0.414336
452	H	0.787462	0.556935	0.6043
453	C	0.985446	0.744971	0.383969
454	C	0.541575	0.773039	0.383952
455	C	0.570049	0.787275	0.342618
456	C	0.541538	0.773019	0.634632
457	C	0.98541	0.744955	0.634653
458	C	0.956937	0.730715	0.342652
459	H	0.56137	0.782935	0.604269
460	H	0.561432	0.782967	0.414305
461	H	0.965613	0.735055	0.414336
462	H	0.965552	0.735023	0.6043
463	C	0.707305	0.896621	0.675932
464	N	0.653157	0.869333	0.675936
465	C	0.625867	0.815184	0.675932
466	N	0.653154	0.788323	0.675936
467	C	0.707302	0.81518	0.675932
468	N	0.734162	0.869329	0.675936
469	C	0.819679	0.621369	0.676003
470	N	0.873828	0.648657	0.676
471	C	0.901117	0.702806	0.676003
472	N	0.873831	0.729667	0.676
473	C	0.819683	0.70281	0.676003
474	N	0.792823	0.648661	0.676
475	C	0.777515	0.744975	0.717303
476	C	0.749449	0.773035	0.717286
477	C	0.73521	0.787271	0.675949
478	C	0.749467	0.773015	0.967967
479	C	0.777533	0.744955	0.967984
480	C	0.791772	0.730719	0.675987
481	H	0.739549	0.782931	0.937603
482	H	0.73952	0.782963	0.74764
483	H	0.787433	0.735059	0.74767
484	H	0.787465	0.735027	0.93763
485	C	0.777514	0.53704	0.717303
486	C	0.749452	0.980914	0.717286
487	C	0.735215	0.952439	0.675949
488	C	0.749469	0.98095	0.967967
489	C	0.777532	0.537076	0.967984
490	C	0.79177	0.565551	0.675987
491	H	0.739554	0.961119	0.9376
492	H	0.739522	0.961055	0.74764
493	H	0.787432	0.556875	0.74767
494	H	0.787462	0.556935	0.93763
495	C	0.985446	0.744971	0.717303
496	C	0.541575	0.773039	0.717286
497	C	0.570049	0.787275	0.675949
498	C	0.541538	0.773019	0.967967
499	C	0.98541	0.744955	0.967984
500	C	0.956937	0.730715	0.675987
501	H	0.56137	0.782935	0.9376
502	H	0.561432	0.782967	0.74764
503	H	0.965613	0.735055	0.74767
504	H	0.965552	0.735023	0.93763
