data_C171H108N36_2018-02-15_10:45:42
#******************************************
#
# CIF file created by Zeo++
# Zeo++ is an open source package to
# analyze microporous materials
#
#*******************************************

_cell_length_a		29.2461   
_cell_length_b		29.246   
_cell_length_c		30.0272   
_cell_angle_alpha		90   
_cell_angle_beta		90   
_cell_angle_gamma		120   

_symmetry_space_group_name_H-M		'P1'
_symmetry_Int_Tables_number		1
_symmetry_cell_setting		Monoclinic

loop_
_symmetry_equiv_pos_as_xyz
'+x,+y,+z'

loop_
_atom_site_label
_atom_site_type_symbol
_atom_site_fract_x
_atom_site_fract_y
_atom_site_fract_z
1	C	0.36831	0.646433	0.980691
2	C	0.38738	0.701384	0.980537
3	C	0.352435	0.721646	0.980687
4	C	0.297484	0.685769	0.980561
5	C	0.277216	0.630557	0.980731
6	C	0.3131	0.611487	0.980587
7	H	0.27184	0.700069	0.979395
8	H	0.298799	0.571546	0.979392
9	H	0.427324	0.727028	0.979355
10	C	0.370983	0.775374	0.9778
11	C	0.223491	0.595378	0.977833
12	C	0.40348	0.627876	0.977793
13	H	0.436103	0.648016	0.95962
14	H	0.211015	0.562746	0.959676
15	H	0.350832	0.787858	0.95964
16	C	0.630181	0.352407	0.02538
17	C	0.611253	0.297494	0.025557
18	C	0.646448	0.277554	0.025389
19	C	0.701364	0.313538	0.025563
20	C	0.721308	0.368675	0.025361
21	C	0.685322	0.387602	0.025557
22	H	0.727161	0.299414	0.026669
23	H	0.699446	0.427523	0.02666
24	H	0.571335	0.271697	0.026679
25	C	0.627999	0.223929	0.028145
26	C	0.774932	0.403845	0.028124
27	C	0.595021	0.370871	0.028134
28	H	0.564461	0.353046	0.048872
29	H	0.787653	0.434397	0.048867
30	H	0.645829	0.211207	0.048887
31	C	0.424303	0.562718	0.998261
32	C	0.437909	0.547379	0.038678
33	N	0.466537	0.52243	0.036852
34	C	0.48287	0.510372	0.998528
35	C	0.469513	0.524085	0.290496
36	C	0.43986	0.550064	0.290952
37	H	0.429248	0.559714	0.261425
38	C	0.512586	0.484444	0.332829
39	C	0.554	0.446158	0.041867
40	C	0.571446	0.432529	0.336182
41	C	0.559483	0.446624	0.29469
42	N	0.525662	0.471159	0.038915
43	C	0.52942	0.472213	0.292385
44	C	0.515861	0.485893	0.251366
45	C	0.486009	0.511506	0.250424
46	H	0.527562	0.477306	0.221913
47	H	0.476652	0.5211	0.220303
48	H	0.572264	0.437618	0.265991
49	H	0.562885	0.437982	0.072701
50	C	0.423984	0.557277	0.08364
51	H	0.401369	0.57769	0.082786
52	H	0.460034	0.581464	0.102659
53	H	0.40048	0.519753	0.100902
54	N	0.395129	0.585843	0.998391
55	N	0.600733	0.409594	0.337194
56	C	0.436152	0.861359	0.998258
57	C	0.45152	0.890299	0.038676
58	N	0.476463	0.943877	0.036852
59	C	0.488498	0.972268	0.998531
60	C	0.474763	0.945203	0.290498
61	C	0.448781	0.889569	0.290951
62	H	0.439112	0.86931	0.261423
63	C	0.514434	0.027914	0.332835
64	C	0.552743	0.107611	0.041876
65	C	0.566372	0.13869	0.336192
66	C	0.552239	0.112632	0.294702
67	N	0.527736	0.054273	0.038922
68	C	0.526642	0.056981	0.292393
69	C	0.512932	0.029744	0.251373
70	C	0.487319	0.974278	0.250428
71	H	0.521496	0.050033	0.221922
72	H	0.477697	0.955331	0.220307
73	H	0.561215	0.134422	0.266005
74	H	0.560933	0.124674	0.072712
75	C	0.44163	0.866472	0.083636
76	H	0.421211	0.823444	0.082779
77	H	0.417452	0.87834	0.102664
78	H	0.479158	0.880488	0.10089
79	N	0.413026	0.809056	0.998385
80	N	0.589281	0.190911	0.337204
81	C	0.137509	0.574543	0.998288
82	C	0.108555	0.560985	0.0387
83	N	0.054979	0.53236	0.03687
84	C	0.026592	0.516007	0.998544
85	C	0.053668	0.529348	0.290516
86	C	0.1093	0.558991	0.290978
87	H	0.129566	0.569588	0.261452
88	C	0.970943	0.486296	0.332842
89	C	0.89124	0.444895	0.041874
90	C	0.860171	0.427432	0.336185
91	C	0.886234	0.439375	0.294697
92	N	0.944578	0.473235	0.038926
93	C	0.941884	0.469441	0.292396
94	C	0.969128	0.48298	0.25138
95	C	0.024599	0.51284	0.250442
96	H	0.948846	0.471261	0.221926
97	H	0.043553	0.52217	0.220323
98	H	0.864449	0.426579	0.265997
99	H	0.874172	0.436019	0.072707
100	C	0.132372	0.574918	0.083663
101	H	0.175401	0.597514	0.082813
102	H	0.120489	0.538875	0.102696
103	H	0.118369	0.598446	0.100909
104	N	0.189805	0.603732	0.998421
105	N	0.80795	0.39814	0.337191
106	C	0.36831	0.646433	0.314023
107	C	0.38738	0.701384	0.313871
108	C	0.352435	0.721646	0.314022
109	C	0.297484	0.685769	0.313894
110	C	0.277216	0.630557	0.314063
111	C	0.3131	0.611487	0.313921
112	H	0.27184	0.700069	0.312729
113	H	0.298799	0.571546	0.312726
114	H	0.427324	0.727028	0.312689
115	C	0.370983	0.775374	0.311133
116	C	0.223491	0.595378	0.311168
117	C	0.40348	0.627876	0.311126
118	H	0.436103	0.648016	0.292953
119	H	0.211015	0.562746	0.293009
120	H	0.350832	0.787858	0.292972
121	C	0.630181	0.352407	0.358715
122	C	0.611253	0.297494	0.358891
123	C	0.646448	0.277554	0.358721
124	C	0.701364	0.313538	0.358898
125	C	0.721308	0.368675	0.358695
126	C	0.685322	0.387602	0.358891
127	H	0.727161	0.299414	0.360004
128	H	0.699446	0.427523	0.359994
129	H	0.571335	0.271697	0.360014
130	C	0.627999	0.223929	0.361479
131	C	0.774932	0.403845	0.361459
132	C	0.595021	0.370871	0.361469
133	H	0.564461	0.353046	0.382207
134	H	0.787653	0.434397	0.3822
135	H	0.645829	0.211207	0.38222
136	C	0.424303	0.562718	0.331595
137	C	0.437909	0.547379	0.372013
138	N	0.466537	0.52243	0.370184
139	C	0.48287	0.510372	0.331861
140	C	0.469513	0.524085	0.623831
141	C	0.43986	0.550064	0.624287
142	H	0.429248	0.559714	0.594757
143	C	0.512586	0.484444	0.666163
144	C	0.554	0.446158	0.3752
145	C	0.571446	0.432529	0.669513
146	C	0.559483	0.446624	0.628024
147	N	0.525662	0.471159	0.372249
148	C	0.52942	0.472213	0.625719
149	C	0.515861	0.485893	0.5847
150	C	0.486009	0.511506	0.583757
151	H	0.527562	0.477306	0.555246
152	H	0.476652	0.5211	0.553635
153	H	0.572264	0.437618	0.599323
154	H	0.562885	0.437982	0.406035
155	C	0.423984	0.557277	0.416972
156	H	0.401369	0.57769	0.416119
157	H	0.460034	0.581464	0.435991
158	H	0.40048	0.519753	0.434236
159	N	0.395129	0.585843	0.331724
160	N	0.600733	0.409594	0.670529
161	C	0.436152	0.861359	0.331592
162	C	0.45152	0.890299	0.372009
163	N	0.476463	0.943877	0.370184
164	C	0.488498	0.972268	0.331864
165	C	0.474763	0.945203	0.623831
166	C	0.448781	0.889569	0.624284
167	H	0.439112	0.86931	0.594757
168	C	0.514434	0.027914	0.666169
169	C	0.552743	0.107611	0.37521
170	C	0.566372	0.13869	0.669526
171	C	0.552239	0.112632	0.628034
172	N	0.527736	0.054273	0.372256
173	C	0.526642	0.056981	0.625726
174	C	0.512932	0.029744	0.584706
175	C	0.487319	0.974278	0.583761
176	H	0.521496	0.050033	0.555256
177	H	0.477697	0.955331	0.553641
178	H	0.561215	0.134422	0.59934
179	H	0.560933	0.124674	0.406045
180	C	0.44163	0.866472	0.416969
181	H	0.421211	0.823444	0.416113
182	H	0.417452	0.87834	0.435998
183	H	0.479158	0.880488	0.434223
184	N	0.413026	0.809056	0.331718
185	N	0.589281	0.190911	0.670535
186	C	0.137509	0.574543	0.331622
187	C	0.108555	0.560985	0.372033
188	N	0.054979	0.53236	0.370204
189	C	0.026592	0.516007	0.331878
190	C	0.053668	0.529348	0.623851
191	C	0.1093	0.558991	0.62431
192	H	0.129566	0.569588	0.594784
193	C	0.970943	0.486296	0.666176
194	C	0.89124	0.444895	0.375206
195	C	0.860171	0.427432	0.669519
196	C	0.886234	0.439375	0.62803
197	N	0.944578	0.473235	0.372259
198	C	0.941884	0.469441	0.625729
199	C	0.969128	0.48298	0.584713
200	C	0.024599	0.51284	0.583774
201	H	0.948846	0.471261	0.55526
202	H	0.043553	0.52217	0.553658
203	H	0.864449	0.426579	0.59933
204	H	0.874172	0.436019	0.406042
205	C	0.132372	0.574918	0.416998
206	H	0.175401	0.597514	0.416146
207	H	0.120489	0.538875	0.436028
208	H	0.118369	0.598446	0.434243
209	N	0.189805	0.603732	0.331753
210	N	0.80795	0.39814	0.670522
211	C	0.36831	0.646433	0.647356
212	C	0.38738	0.701384	0.647203
213	C	0.352435	0.721646	0.647356
214	C	0.297484	0.685769	0.647226
215	C	0.277216	0.630557	0.647396
216	C	0.3131	0.611487	0.647253
217	H	0.27184	0.700069	0.646061
218	H	0.298799	0.571546	0.646061
219	H	0.427324	0.727028	0.646024
220	C	0.370983	0.775374	0.644466
221	C	0.223491	0.595378	0.644502
222	C	0.40348	0.627876	0.644459
223	H	0.436103	0.648016	0.626285
224	H	0.211015	0.562746	0.626342
225	H	0.350832	0.787858	0.626305
226	C	0.630181	0.352407	0.692046
227	C	0.611253	0.297494	0.692226
228	C	0.646448	0.277554	0.692056
229	C	0.701364	0.313538	0.692229
230	C	0.721308	0.368675	0.692029
231	C	0.685322	0.387602	0.692226
232	H	0.727161	0.299414	0.693335
233	H	0.699446	0.427523	0.693328
234	H	0.571335	0.271697	0.693345
235	C	0.627999	0.223929	0.694813
236	C	0.774932	0.403845	0.69479
237	C	0.595021	0.370871	0.6948
238	H	0.564461	0.353046	0.715538
239	H	0.787653	0.434397	0.715534
240	H	0.645829	0.211207	0.715554
241	C	0.424303	0.562718	0.664927
242	C	0.437909	0.547379	0.705344
243	N	0.466537	0.52243	0.703519
244	C	0.48287	0.510372	0.665193
245	C	0.469513	0.524085	0.957162
246	C	0.43986	0.550064	0.957618
247	H	0.429248	0.559714	0.928092
248	C	0.512586	0.484444	0.999497
249	C	0.554	0.446158	0.708534
250	C	0.571446	0.432529	0.002847
251	C	0.559483	0.446624	0.961358
252	N	0.525662	0.471159	0.705583
253	C	0.52942	0.472213	0.95905
254	C	0.515861	0.485893	0.918034
255	C	0.486009	0.511506	0.917092
256	H	0.527562	0.477306	0.888581
257	H	0.476652	0.5211	0.886969
258	H	0.572264	0.437618	0.932658
259	H	0.562885	0.437982	0.739369
260	C	0.423984	0.557277	0.750306
261	H	0.401369	0.57769	0.749454
262	H	0.460034	0.581464	0.769326
263	H	0.40048	0.519753	0.767567
264	N	0.395129	0.585843	0.665057
265	N	0.600733	0.409594	0.003861
266	C	0.436152	0.861359	0.664924
267	C	0.45152	0.890299	0.705344
268	N	0.476463	0.943877	0.703519
269	C	0.488498	0.972268	0.665197
270	C	0.474763	0.945203	0.957165
271	C	0.448781	0.889569	0.957618
272	H	0.439112	0.86931	0.928088
273	C	0.514434	0.027914	0.999504
274	C	0.552743	0.107611	0.708544
275	C	0.566372	0.13869	0.00286
276	C	0.552239	0.112632	0.961368
277	N	0.527736	0.054273	0.70559
278	C	0.526642	0.056981	0.95906
279	C	0.512932	0.029744	0.918041
280	C	0.487319	0.974278	0.917095
281	H	0.521496	0.050033	0.888587
282	H	0.477697	0.955331	0.886972
283	H	0.561215	0.134422	0.932671
284	H	0.560933	0.124674	0.739379
285	C	0.44163	0.866472	0.750303
286	H	0.421211	0.823444	0.749447
287	H	0.417452	0.87834	0.769332
288	H	0.479158	0.880488	0.767557
289	N	0.413026	0.809056	0.66505
290	N	0.589281	0.190911	0.00387
291	C	0.137509	0.574543	0.664954
292	C	0.108555	0.560985	0.705367
293	N	0.054979	0.53236	0.703539
294	C	0.026592	0.516007	0.66521
295	C	0.053668	0.529348	0.957182
296	C	0.1093	0.558991	0.957645
297	H	0.129566	0.569588	0.928118
298	C	0.970943	0.486296	0.99951
299	C	0.89124	0.444895	0.708541
300	C	0.860171	0.427432	0.002853
301	C	0.886234	0.439375	0.961365
302	N	0.944578	0.473235	0.705593
303	C	0.941884	0.469441	0.959064
304	C	0.969128	0.48298	0.918047
305	C	0.024599	0.51284	0.917108
306	H	0.948846	0.471261	0.888594
307	H	0.043553	0.52217	0.886989
308	H	0.864449	0.426579	0.932664
309	H	0.874172	0.436019	0.739373
310	C	0.132372	0.574918	0.75033
311	H	0.175401	0.597514	0.74948
312	H	0.120489	0.538875	0.769362
313	H	0.118369	0.598446	0.767577
314	N	0.189805	0.603732	0.665087
315	N	0.80795	0.39814	0.003857
