data_C162H72N54O72_2018-02-15_10:45:41
#******************************************
#
# CIF file created by Zeo++
# Zeo++ is an open source package to
# analyze microporous materials
#
#*******************************************

_cell_length_a		29.4957   
_cell_length_b		29.4957   
_cell_length_c		30.04   
_cell_angle_alpha		90   
_cell_angle_beta		90   
_cell_angle_gamma		120   

_symmetry_space_group_name_H-M		'P1'
_symmetry_Int_Tables_number		1
_symmetry_cell_setting		Monoclinic

loop_
_symmetry_equiv_pos_as_xyz
'+x,+y,+z'

loop_
_atom_site_label
_atom_site_type_symbol
_atom_site_fract_x
_atom_site_fract_y
_atom_site_fract_z
1	C	0.370357	0.64978	0.998774
2	C	0.385914	0.703519	0.998611
3	C	0.348555	0.720239	0.998764
4	C	0.294813	0.682058	0.998628
5	C	0.278086	0.627975	0.998807
6	C	0.316274	0.612421	0.998671
7	H	0.267487	0.693826	0.99701
8	H	0.304502	0.573328	0.997013
9	H	0.425008	0.730844	0.996983
10	C	0.363715	0.77267	0.994643
11	C	0.225659	0.590709	0.99467
12	C	0.40761	0.634598	0.994643
13	H	0.438504	0.655476	0.975116
14	H	0.215658	0.559826	0.975132
15	H	0.342832	0.782676	0.975109
16	C	0.627489	0.34896	0.99455
17	C	0.612208	0.295228	0.994493
18	C	0.649373	0.27819	0.994533
19	C	0.703104	0.316639	0.994443
20	C	0.72014	0.370842	0.99451
21	C	0.681694	0.386126	0.994463
22	H	0.73041	0.304827	0.99414
23	H	0.693505	0.425242	0.994177
24	H	0.57309	0.267923	0.994224
25	C	0.634679	0.225369	0.994057
26	C	0.772962	0.408964	0.994004
27	C	0.589361	0.363653	0.99409
28	H	0.552631	0.336843	0.986983
29	H	0.782889	0.445674	0.986793
30	H	0.661474	0.215444	0.9869
31	C	0.432898	0.572701	0.012842
32	C	0.443476	0.554075	0.052357
33	C	0.472895	0.528151	0.051796
34	C	0.491041	0.52002	0.010444
35	C	0.480032	0.537883	0.303563
36	C	0.450981	0.564089	0.305321
37	H	0.441914	0.575861	0.276257
38	C	0.518186	0.491575	0.008924
39	C	0.489434	0.43611	0.006667
40	C	0.516819	0.408209	0.004467
41	C	0.572072	0.434501	0.004262
42	C	0.599901	0.489555	0.006719
43	C	0.573695	0.51863	0.008874
44	H	0.495823	0.368258	0.003176
45	H	0.64	0.509141	0.006687
46	H	0.429688	0.559364	0.082046
47	N	0.601829	0.574044	0.010927
48	N	0.433968	0.409653	0.006378
49	N	0.484097	0.50988	0.091622
50	N	0.497363	0.528468	0.262393
51	O	0.630063	0.593559	0.977086
52	O	0.527576	0.570509	0.242644
53	O	0.510645	0.546883	0.118031
54	O	0.415035	0.379289	0.039076
55	O	0.630242	0.590083	0.045019
56	O	0.459576	0.500512	0.237122
57	O	0.442954	0.476879	0.111029
58	O	0.415719	0.383847	0.971161
59	N	0.600242	0.410789	0.002441
60	N	0.402504	0.593877	0.01482
61	C	0.425583	0.859857	0.012831
62	C	0.444255	0.889057	0.052344
63	C	0.470198	0.944401	0.051786
64	C	0.478333	0.970685	0.010435
65	C	0.460456	0.941817	0.303555
66	C	0.434229	0.886559	0.305311
67	H	0.422448	0.865721	0.276246
68	C	0.506775	0.026275	0.008923
69	C	0.562241	0.052991	0.006667
70	C	0.590139	0.108277	0.00447
71	C	0.563843	0.137236	0.004274
72	C	0.508792	0.110008	0.00673
73	C	0.479717	0.054726	0.008876
74	H	0.63009	0.127235	0.003184
75	H	0.489203	0.13052	0.006696
76	H	0.438968	0.86998	0.082032
77	N	0.424304	0.027443	0.010924
78	N	0.5887	0.023985	0.006376
79	N	0.488487	0.973871	0.091613
80	N	0.469883	0.968567	0.262386
81	O	0.40479	0.036166	0.977083
82	O	0.427843	0.956756	0.242638
83	O	0.451493	0.963431	0.118026
84	O	0.619063	0.035414	0.039076
85	O	0.40826	0.03981	0.045018
86	O	0.497823	0.958717	0.237114
87	O	0.521479	0.965709	0.111012
88	O	0.614508	0.031546	0.971158
89	N	0.587556	0.189117	0.002453
90	N	0.404431	0.808291	0.014818
91	C	0.138469	0.565385	0.012851
92	C	0.109259	0.554846	0.05236
93	C	0.053918	0.52545	0.051795
94	C	0.02764	0.507312	0.010441
95	C	0.056516	0.518305	0.303564
96	C	0.111775	0.547322	0.305328
97	H	0.132615	0.556404	0.276264
98	C	0.972052	0.480167	0.008919
99	C	0.945335	0.508913	0.00666
100	C	0.890048	0.481525	0.004458
101	C	0.861092	0.426272	0.004258
102	C	0.888319	0.398449	0.006729
103	C	0.943601	0.424655	0.008874
104	H	0.871089	0.502517	0.003172
105	H	0.867806	0.358346	0.006691
106	H	0.128335	0.568638	0.082051
107	N	0.970885	0.396527	0.010928
108	N	0.97434	0.564382	0.006372
109	N	0.024443	0.514265	0.091618
110	N	0.029771	0.501002	0.262391
111	O	0.962163	0.368287	0.97709
112	O	0.041573	0.470771	0.242636
113	O	0.034875	0.487703	0.118032
114	O	0.962907	0.58331	0.03907
115	O	0.958515	0.368118	0.045023
116	O	0.039637	0.538803	0.237128
117	O	0.032601	0.555414	0.111021
118	O	0.966784	0.582629	0.971154
119	N	0.809211	0.398101	0.002446
120	N	0.190035	0.595799	0.014845
121	C	0.370357	0.64978	0.332106
122	C	0.385914	0.703519	0.331945
123	C	0.348555	0.720239	0.332097
124	C	0.294813	0.682058	0.331962
125	C	0.278086	0.627975	0.332142
126	C	0.316274	0.612421	0.332004
127	H	0.267487	0.693826	0.330343
128	H	0.304502	0.573328	0.330344
129	H	0.425008	0.730844	0.330315
130	C	0.363715	0.77267	0.327975
131	C	0.225659	0.590709	0.328003
132	C	0.40761	0.634598	0.327976
133	H	0.438504	0.655476	0.308448
134	H	0.215658	0.559826	0.308463
135	H	0.342832	0.782676	0.308441
136	C	0.627489	0.34896	0.327882
137	C	0.612208	0.295228	0.327825
138	C	0.649373	0.27819	0.327865
139	C	0.703104	0.316639	0.327776
140	C	0.72014	0.370842	0.327842
141	C	0.681694	0.386126	0.327795
142	H	0.73041	0.304827	0.327474
143	H	0.693505	0.425242	0.32751
144	H	0.57309	0.267923	0.327556
145	C	0.634679	0.225369	0.32739
146	C	0.772962	0.408964	0.327338
147	C	0.589361	0.363653	0.327424
148	H	0.552631	0.336843	0.320315
149	H	0.782889	0.445674	0.320127
150	H	0.661474	0.215444	0.320232
151	C	0.432898	0.572701	0.346175
152	C	0.443476	0.554075	0.385692
153	C	0.472895	0.528151	0.385129
154	C	0.491041	0.52002	0.343778
155	C	0.480032	0.537883	0.636897
156	C	0.450981	0.564089	0.638655
157	H	0.441914	0.575861	0.60959
158	C	0.518186	0.491575	0.342257
159	C	0.489434	0.43611	0.34
160	C	0.516819	0.408209	0.337799
161	C	0.572072	0.434501	0.337596
162	C	0.599901	0.489555	0.340053
163	C	0.573695	0.51863	0.342207
164	H	0.495823	0.368258	0.336511
165	H	0.64	0.509141	0.34002
166	H	0.429688	0.559364	0.415379
167	N	0.601829	0.574044	0.344261
168	N	0.433968	0.409653	0.33971
169	N	0.484097	0.50988	0.424956
170	N	0.497363	0.528468	0.595725
171	O	0.630063	0.593559	0.310419
172	O	0.527576	0.570509	0.575978
173	O	0.510645	0.546883	0.451364
174	O	0.415035	0.379289	0.37241
175	O	0.630242	0.590083	0.378352
176	O	0.459576	0.500512	0.570456
177	O	0.442954	0.476879	0.444364
178	O	0.415719	0.383847	0.304492
179	N	0.600242	0.410789	0.335775
180	N	0.402504	0.593877	0.348155
181	C	0.425583	0.859857	0.346165
182	C	0.444255	0.889057	0.385679
183	C	0.470198	0.944401	0.38512
184	C	0.478333	0.970685	0.343768
185	C	0.460456	0.941817	0.636887
186	C	0.434229	0.886559	0.638645
187	H	0.422448	0.865721	0.60958
188	C	0.506775	0.026275	0.342257
189	C	0.562241	0.052991	0.34
190	C	0.590139	0.108277	0.337803
191	C	0.563843	0.137236	0.337606
192	C	0.508792	0.110008	0.340063
193	C	0.479717	0.054726	0.34221
194	H	0.63009	0.127235	0.336518
195	H	0.489203	0.13052	0.34003
196	H	0.438968	0.86998	0.415366
197	N	0.424304	0.027443	0.344257
198	N	0.5887	0.023985	0.33971
199	N	0.488487	0.973871	0.424946
200	N	0.469883	0.968567	0.595719
201	O	0.40479	0.036166	0.310417
202	O	0.427843	0.956756	0.575972
203	O	0.451493	0.963431	0.451361
204	O	0.619063	0.035414	0.37241
205	O	0.40826	0.03981	0.378352
206	O	0.497823	0.958717	0.570449
207	O	0.521479	0.965709	0.444347
208	O	0.614508	0.031546	0.304491
209	N	0.587556	0.189117	0.335785
210	N	0.404431	0.808291	0.348152
211	C	0.138469	0.565385	0.346185
212	C	0.109259	0.554846	0.385695
213	C	0.053918	0.52545	0.385129
214	C	0.02764	0.507312	0.343775
215	C	0.056516	0.518305	0.636897
216	C	0.111775	0.547322	0.638661
217	H	0.132615	0.556404	0.609597
218	C	0.972052	0.480167	0.342253
219	C	0.945335	0.508913	0.339993
220	C	0.890048	0.481525	0.337793
221	C	0.861092	0.426272	0.337593
222	C	0.888319	0.398449	0.340063
223	C	0.943601	0.424655	0.342207
224	H	0.871089	0.502517	0.336504
225	H	0.867806	0.358346	0.340026
226	H	0.128335	0.568638	0.415386
227	N	0.970885	0.396527	0.344261
228	N	0.97434	0.564382	0.339707
229	N	0.024443	0.514265	0.424953
230	N	0.029771	0.501002	0.595725
231	O	0.962163	0.368287	0.310423
232	O	0.041573	0.470771	0.575968
233	O	0.034875	0.487703	0.451364
234	O	0.962907	0.58331	0.372403
235	O	0.958515	0.368118	0.378359
236	O	0.039637	0.538803	0.570462
237	O	0.032601	0.555414	0.444354
238	O	0.966784	0.582629	0.304486
239	N	0.809211	0.398101	0.335779
240	N	0.190035	0.595799	0.348179
241	C	0.370357	0.64978	0.665439
242	C	0.385914	0.703519	0.665279
243	C	0.348555	0.720239	0.665432
244	C	0.294813	0.682058	0.665296
245	C	0.278086	0.627975	0.665475
246	C	0.316274	0.612421	0.665339
247	H	0.267487	0.693826	0.663678
248	H	0.304502	0.573328	0.663678
249	H	0.425008	0.730844	0.663648
250	C	0.363715	0.77267	0.661308
251	C	0.225659	0.590709	0.661338
252	C	0.40761	0.634598	0.661311
253	H	0.438504	0.655476	0.64178
254	H	0.215658	0.559826	0.641797
255	H	0.342832	0.782676	0.641774
256	C	0.627489	0.34896	0.661214
257	C	0.612208	0.295228	0.661158
258	C	0.649373	0.27819	0.661198
259	C	0.703104	0.316639	0.661111
260	C	0.72014	0.370842	0.661175
261	C	0.681694	0.386126	0.661128
262	H	0.73041	0.304827	0.660808
263	H	0.693505	0.425242	0.660845
264	H	0.57309	0.267923	0.660888
265	C	0.634679	0.225369	0.660725
266	C	0.772962	0.408964	0.660672
267	C	0.589361	0.363653	0.660758
268	H	0.552631	0.336843	0.653648
269	H	0.782889	0.445674	0.653461
270	H	0.661474	0.215444	0.653565
271	C	0.432898	0.572701	0.67951
272	C	0.443476	0.554075	0.719024
273	C	0.472895	0.528151	0.718465
274	C	0.491041	0.52002	0.67711
275	C	0.480032	0.537883	0.970229
276	C	0.450981	0.564089	0.971987
277	H	0.441914	0.575861	0.942925
278	C	0.518186	0.491575	0.675592
279	C	0.489434	0.43611	0.673335
280	C	0.516819	0.408209	0.671135
281	C	0.572072	0.434501	0.670928
282	C	0.599901	0.489555	0.673385
283	C	0.573695	0.51863	0.675542
284	H	0.495823	0.368258	0.669843
285	H	0.64	0.509141	0.673355
286	H	0.429688	0.559364	0.748714
287	N	0.601829	0.574044	0.677596
288	N	0.433968	0.409653	0.673045
289	N	0.484097	0.50988	0.758288
290	N	0.497363	0.528468	0.92906
291	O	0.630063	0.593559	0.643751
292	O	0.527576	0.570509	0.90931
293	O	0.510645	0.546883	0.784696
294	O	0.415035	0.379289	0.705745
295	O	0.630242	0.590083	0.711687
296	O	0.459576	0.500512	0.903791
297	O	0.442954	0.476879	0.777696
298	O	0.415719	0.383847	0.637826
299	N	0.600242	0.410789	0.669107
300	N	0.402504	0.593877	0.681487
301	C	0.425583	0.859857	0.679497
302	C	0.444255	0.889057	0.719011
303	C	0.470198	0.944401	0.718451
304	C	0.478333	0.970685	0.677103
305	C	0.460456	0.941817	0.970222
306	C	0.434229	0.886559	0.971977
307	H	0.422448	0.865721	0.942915
308	C	0.506775	0.026275	0.675589
309	C	0.562241	0.052991	0.673335
310	C	0.590139	0.108277	0.671138
311	C	0.563843	0.137236	0.670941
312	C	0.508792	0.110008	0.673398
313	C	0.479717	0.054726	0.675542
314	H	0.63009	0.127235	0.66985
315	H	0.489203	0.13052	0.673362
316	H	0.438968	0.86998	0.748701
317	N	0.424304	0.027443	0.677593
318	N	0.5887	0.023985	0.673042
319	N	0.488487	0.973871	0.758282
320	N	0.469883	0.968567	0.929054
321	O	0.40479	0.036166	0.643751
322	O	0.427843	0.956756	0.909303
323	O	0.451493	0.963431	0.784693
324	O	0.619063	0.035414	0.705742
325	O	0.40826	0.03981	0.711684
326	O	0.497823	0.958717	0.903781
327	O	0.521479	0.965709	0.777679
328	O	0.614508	0.031546	0.637826
329	N	0.587556	0.189117	0.669121
330	N	0.404431	0.808291	0.681484
331	C	0.138469	0.565385	0.679517
332	C	0.109259	0.554846	0.719027
333	C	0.053918	0.52545	0.718461
334	C	0.02764	0.507312	0.67711
335	C	0.056516	0.518305	0.970232
336	C	0.111775	0.547322	0.971996
337	H	0.132615	0.556404	0.942932
338	C	0.972052	0.480167	0.675585
339	C	0.945335	0.508913	0.673328
340	C	0.890048	0.481525	0.671125
341	C	0.861092	0.426272	0.670925
342	C	0.888319	0.398449	0.673395
343	C	0.943601	0.424655	0.675542
344	H	0.871089	0.502517	0.66984
345	H	0.867806	0.358346	0.673358
346	H	0.128335	0.568638	0.748718
347	N	0.970885	0.396527	0.677596
348	N	0.97434	0.564382	0.673039
349	N	0.024443	0.514265	0.758285
350	N	0.029771	0.501002	0.929057
351	O	0.962163	0.368287	0.643758
352	O	0.041573	0.470771	0.909303
353	O	0.034875	0.487703	0.7847
354	O	0.962907	0.58331	0.705738
355	O	0.958515	0.368118	0.71169
356	O	0.039637	0.538803	0.903794
357	O	0.032601	0.555414	0.777689
358	O	0.966784	0.582629	0.637819
359	N	0.809211	0.398101	0.669114
360	N	0.190035	0.595799	0.681514
