data_C216H72N144_2018-02-15_10:38:15
#******************************************
#
# CIF file created by Zeo++
# Zeo++ is an open source package to
# analyze microporous materials
#
#*******************************************

_cell_length_a		28.7824   
_cell_length_b		28.7824   
_cell_length_c		29.4512   
_cell_angle_alpha		90   
_cell_angle_beta		90   
_cell_angle_gamma		120   

_symmetry_space_group_name_H-M		'P1'
_symmetry_Int_Tables_number		1
_symmetry_cell_setting		Monoclinic

loop_
_symmetry_equiv_pos_as_xyz
'+x,+y,+z'

loop_
_atom_site_label
_atom_site_type_symbol
_atom_site_fract_x
_atom_site_fract_y
_atom_site_fract_z
1	N	0.153467	0.369829	0.009367
2	C	0.125928	0.315294	0.009362
3	N	0.153465	0.288297	0.009367
4	C	0.04015	0.272405	0.050251
5	C	0.040095	0.272378	0.301888
6	C	0.069715	0.287189	0.342723
7	H	0.059154	0.281908	0.081017
8	H	0.059059	0.28186	0.271103
9	N	0.153467	0.369829	0.342699
10	C	0.125928	0.315294	0.342696
11	N	0.153465	0.288297	0.342699
12	C	0.04015	0.272405	0.383584
13	C	0.040095	0.272378	0.635221
14	C	0.069715	0.287189	0.676054
15	H	0.059154	0.281908	0.41435
16	H	0.059059	0.28186	0.604434
17	N	0.153467	0.369829	0.676034
18	C	0.125928	0.315294	0.676027
19	N	0.153465	0.288297	0.676034
20	C	0.04015	0.272405	0.716915
21	C	0.040095	0.272378	0.968555
22	C	0.069715	0.287189	0.009388
23	H	0.059154	0.281908	0.747685
24	H	0.059059	0.28186	0.937769
25	N	0.153465	0.869827	0.009367
26	C	0.125927	0.815294	0.009362
27	N	0.153463	0.788295	0.009367
28	C	0.040149	0.772404	0.050251
29	C	0.040094	0.772376	0.301888
30	C	0.069715	0.787187	0.342723
31	H	0.059154	0.781908	0.081017
32	H	0.059059	0.78186	0.271103
33	N	0.153465	0.869827	0.342699
34	C	0.125927	0.815294	0.342696
35	N	0.153463	0.788295	0.342699
36	C	0.040149	0.772404	0.383584
37	C	0.040094	0.772376	0.635221
38	C	0.069715	0.787187	0.676054
39	H	0.059154	0.781908	0.41435
40	H	0.059059	0.78186	0.604434
41	N	0.153465	0.869827	0.676034
42	C	0.125927	0.815294	0.676027
43	N	0.153463	0.788295	0.676034
44	C	0.040149	0.772404	0.716915
45	C	0.040094	0.772376	0.968555
46	C	0.069715	0.787187	0.009388
47	H	0.059154	0.781908	0.747685
48	H	0.059059	0.78186	0.937769
49	C	0.208001	0.397366	0.009362
50	C	0.207999	0.315292	0.009362
51	N	0.234997	0.369826	0.009367
52	C	0.319967	0.121298	0.009467
53	N	0.374493	0.1488	0.009462
54	C	0.401997	0.203325	0.009467
55	N	0.374496	0.23035	0.009462
56	C	0.31997	0.203329	0.009467
57	N	0.292945	0.148802	0.009462
58	C	0.25089	0.272403	0.05025
59	N	0.278145	0.245153	0.049206
60	C	0.291963	0.231338	0.009442
61	N	0.278171	0.245126	0.302984
62	C	0.250917	0.272376	0.301888
63	C	0.236105	0.287185	0.34272
64	H	0.241387	0.281905	0.081017
65	H	0.241434	0.281857	0.271103
66	C	0.25089	0.483144	0.05025
67	N	0.278143	0.03765	0.049206
68	C	0.291959	0.065284	0.009442
69	N	0.278169	0.037703	0.302984
70	C	0.250918	0.4832	0.301888
71	C	0.236107	0.453576	0.342723
72	H	0.241388	0.46414	0.081017
73	H	0.241436	0.464236	0.271103
74	N	0.485644	0.24515	0.049206
75	C	0.458011	0.231332	0.009442
76	N	0.485593	0.245124	0.302984
77	C	0.208001	0.397366	0.342696
78	C	0.207999	0.315292	0.342696
79	N	0.234997	0.369826	0.342699
80	C	0.319967	0.121298	0.342801
81	N	0.374493	0.1488	0.342794
82	C	0.401997	0.203325	0.342801
83	N	0.374496	0.23035	0.342794
84	C	0.31997	0.203329	0.342801
85	N	0.292945	0.148802	0.342794
86	C	0.25089	0.272403	0.383584
87	N	0.278145	0.245153	0.382538
88	C	0.291963	0.231338	0.342774
89	N	0.278171	0.245126	0.636318
90	C	0.250917	0.272376	0.635221
91	C	0.236105	0.287185	0.676054
92	H	0.241387	0.281905	0.41435
93	H	0.241434	0.281857	0.604434
94	C	0.25089	0.483144	0.383584
95	N	0.278143	0.03765	0.382538
96	C	0.291959	0.065284	0.342774
97	N	0.278169	0.037703	0.636318
98	C	0.250918	0.4832	0.635221
99	C	0.236107	0.453576	0.676054
100	H	0.241388	0.46414	0.41435
101	H	0.241436	0.464236	0.604434
102	N	0.485644	0.24515	0.382538
103	C	0.458011	0.231332	0.342774
104	N	0.485593	0.245124	0.636318
105	C	0.208001	0.397366	0.676027
106	C	0.207999	0.315292	0.676027
107	N	0.234997	0.369826	0.676034
108	C	0.319967	0.121298	0.676133
109	N	0.374493	0.1488	0.676129
110	C	0.401997	0.203325	0.676133
111	N	0.374496	0.23035	0.676129
112	C	0.31997	0.203329	0.676133
113	N	0.292945	0.148802	0.676129
114	C	0.25089	0.272403	0.716915
115	N	0.278145	0.245153	0.715873
116	C	0.291963	0.231338	0.676109
117	N	0.278171	0.245126	0.969649
118	C	0.250917	0.272376	0.968555
119	C	0.236105	0.287185	0.009388
120	H	0.241387	0.281905	0.747685
121	H	0.241434	0.281857	0.937769
122	C	0.25089	0.483144	0.716915
123	N	0.278143	0.03765	0.715873
124	C	0.291959	0.065284	0.676109
125	N	0.278169	0.037703	0.969649
126	C	0.250918	0.4832	0.968555
127	C	0.236107	0.453576	0.009388
128	H	0.241388	0.46414	0.747685
129	H	0.241436	0.464236	0.937769
130	N	0.485644	0.24515	0.715873
131	C	0.458011	0.231332	0.676109
132	N	0.485593	0.245124	0.969649
133	C	0.208	0.897364	0.009362
134	C	0.207998	0.81529	0.009362
135	N	0.234996	0.869827	0.009367
136	C	0.319967	0.621299	0.009467
137	N	0.374493	0.6488	0.009462
138	C	0.401996	0.703324	0.009467
139	N	0.374494	0.730348	0.009462
140	C	0.319969	0.703328	0.009467
141	N	0.292946	0.648804	0.009462
142	C	0.25089	0.772404	0.05025
143	N	0.278144	0.745152	0.049206
144	C	0.291964	0.731339	0.009442
145	N	0.278171	0.745127	0.302984
146	C	0.250917	0.772376	0.301888
147	C	0.236104	0.787183	0.34272
148	H	0.241386	0.781904	0.081017
149	H	0.241433	0.781856	0.271103
150	C	0.25089	0.983145	0.05025
151	N	0.278142	0.537648	0.049206
152	C	0.291958	0.565282	0.009442
153	N	0.278168	0.5377	0.302984
154	C	0.250916	0.983197	0.301888
155	C	0.236107	0.953578	0.342723
156	H	0.241388	0.964141	0.081017
157	H	0.241434	0.964233	0.271103
158	N	0.485643	0.745148	0.049206
159	C	0.458011	0.731331	0.009442
160	N	0.485592	0.745123	0.302984
161	C	0.208	0.897364	0.342696
162	C	0.207998	0.81529	0.342696
163	N	0.234996	0.869827	0.342699
164	C	0.319967	0.621299	0.342801
165	N	0.374493	0.6488	0.342794
166	C	0.401996	0.703324	0.342801
167	N	0.374494	0.730348	0.342794
168	C	0.319969	0.703328	0.342801
169	N	0.292946	0.648804	0.342794
170	C	0.25089	0.772404	0.383584
171	N	0.278144	0.745152	0.382538
172	C	0.291964	0.731339	0.342774
173	N	0.278171	0.745127	0.636318
174	C	0.250917	0.772376	0.635221
175	C	0.236104	0.787183	0.676054
176	H	0.241386	0.781904	0.41435
177	H	0.241433	0.781856	0.604434
178	C	0.25089	0.983145	0.383584
179	N	0.278142	0.537648	0.382538
180	C	0.291958	0.565282	0.342774
181	N	0.278168	0.5377	0.636318
182	C	0.250916	0.983197	0.635221
183	C	0.236107	0.953578	0.676054
184	H	0.241388	0.964141	0.41435
185	H	0.241434	0.964233	0.604434
186	N	0.485643	0.745148	0.382538
187	C	0.458011	0.731331	0.342774
188	N	0.485592	0.745123	0.636318
189	C	0.208	0.897364	0.676027
190	C	0.207998	0.81529	0.676027
191	N	0.234996	0.869827	0.676034
192	C	0.319967	0.621299	0.676133
193	N	0.374493	0.6488	0.676129
194	C	0.401996	0.703324	0.676133
195	N	0.374494	0.730348	0.676129
196	C	0.319969	0.703328	0.676133
197	N	0.292946	0.648804	0.676129
198	C	0.25089	0.772404	0.716915
199	N	0.278144	0.745152	0.715873
200	C	0.291964	0.731339	0.676109
201	N	0.278171	0.745127	0.969649
202	C	0.250917	0.772376	0.968555
203	C	0.236104	0.787183	0.009388
204	H	0.241386	0.781904	0.747685
205	H	0.241433	0.781856	0.937769
206	C	0.25089	0.983145	0.716915
207	N	0.278142	0.537648	0.715873
208	C	0.291958	0.565282	0.676109
209	N	0.278168	0.5377	0.969649
210	C	0.250916	0.983197	0.968555
211	C	0.236107	0.953578	0.009388
212	H	0.241388	0.964141	0.747685
213	H	0.241434	0.964233	0.937769
214	N	0.485643	0.745148	0.715873
215	C	0.458011	0.731331	0.676109
216	N	0.485592	0.745123	0.969649
217	C	0.708001	0.397366	0.009362
218	N	0.653468	0.369829	0.009367
219	C	0.625926	0.315294	0.009362
220	N	0.653467	0.288297	0.009367
221	C	0.708	0.315292	0.009362
222	N	0.734996	0.369826	0.009367
223	C	0.819967	0.121298	0.009467
224	N	0.874493	0.1488	0.009462
225	C	0.901996	0.203325	0.009467
226	N	0.874497	0.23035	0.009462
227	C	0.819971	0.203329	0.009467
228	N	0.792944	0.148802	0.009462
229	C	0.75089	0.272403	0.05025
230	N	0.778144	0.245153	0.049206
231	C	0.791964	0.231338	0.009442
232	N	0.778172	0.245126	0.302984
233	C	0.750918	0.272376	0.301888
234	C	0.736104	0.287185	0.34272
235	H	0.741389	0.281905	0.081017
236	H	0.741434	0.281857	0.271103
237	C	0.75089	0.483144	0.05025
238	N	0.778143	0.03765	0.049206
239	C	0.79196	0.065284	0.009442
240	N	0.77817	0.037703	0.302984
241	C	0.750918	0.4832	0.301888
242	C	0.736106	0.453576	0.342723
243	H	0.741388	0.46414	0.081017
244	H	0.741436	0.464236	0.271103
245	C	0.540151	0.272405	0.050251
246	N	0.985644	0.24515	0.049206
247	C	0.95801	0.231332	0.009442
248	N	0.985593	0.245124	0.302984
249	C	0.540095	0.272378	0.301888
250	C	0.569716	0.287189	0.342723
251	H	0.559154	0.281908	0.081017
252	H	0.559061	0.28186	0.271103
253	C	0.708001	0.397366	0.342696
254	N	0.653468	0.369829	0.342699
255	C	0.625926	0.315294	0.342696
256	N	0.653467	0.288297	0.342699
257	C	0.708	0.315292	0.342696
258	N	0.734996	0.369826	0.342699
259	C	0.819967	0.121298	0.342801
260	N	0.874493	0.1488	0.342794
261	C	0.901996	0.203325	0.342801
262	N	0.874497	0.23035	0.342794
263	C	0.819971	0.203329	0.342801
264	N	0.792944	0.148802	0.342794
265	C	0.75089	0.272403	0.383584
266	N	0.778144	0.245153	0.382538
267	C	0.791964	0.231338	0.342774
268	N	0.778172	0.245126	0.636318
269	C	0.750918	0.272376	0.635221
270	C	0.736104	0.287185	0.676054
271	H	0.741389	0.281905	0.41435
272	H	0.741434	0.281857	0.604434
273	C	0.75089	0.483144	0.383584
274	N	0.778143	0.03765	0.382538
275	C	0.79196	0.065284	0.342774
276	N	0.77817	0.037703	0.636318
277	C	0.750918	0.4832	0.635221
278	C	0.736106	0.453576	0.676054
279	H	0.741388	0.46414	0.41435
280	H	0.741436	0.464236	0.604434
281	C	0.540151	0.272405	0.383584
282	N	0.985644	0.24515	0.382538
283	C	0.95801	0.231332	0.342774
284	N	0.985593	0.245124	0.636318
285	C	0.540095	0.272378	0.635221
286	C	0.569716	0.287189	0.676054
287	H	0.559154	0.281908	0.41435
288	H	0.559061	0.28186	0.604434
289	C	0.708001	0.397366	0.676027
290	N	0.653468	0.369829	0.676034
291	C	0.625926	0.315294	0.676027
292	N	0.653467	0.288297	0.676034
293	C	0.708	0.315292	0.676027
294	N	0.734996	0.369826	0.676034
295	C	0.819967	0.121298	0.676133
296	N	0.874493	0.1488	0.676129
297	C	0.901996	0.203325	0.676133
298	N	0.874497	0.23035	0.676129
299	C	0.819971	0.203329	0.676133
300	N	0.792944	0.148802	0.676129
301	C	0.75089	0.272403	0.716915
302	N	0.778144	0.245153	0.715873
303	C	0.791964	0.231338	0.676109
304	N	0.778172	0.245126	0.969649
305	C	0.750918	0.272376	0.968555
306	C	0.736104	0.287185	0.009388
307	H	0.741389	0.281905	0.747685
308	H	0.741434	0.281857	0.937769
309	C	0.75089	0.483144	0.716915
310	N	0.778143	0.03765	0.715873
311	C	0.79196	0.065284	0.676109
312	N	0.77817	0.037703	0.969649
313	C	0.750918	0.4832	0.968555
314	C	0.736106	0.453576	0.009388
315	H	0.741388	0.46414	0.747685
316	H	0.741436	0.464236	0.937769
317	C	0.540151	0.272405	0.716915
318	N	0.985644	0.24515	0.715873
319	C	0.95801	0.231332	0.676109
320	N	0.985593	0.245124	0.969649
321	C	0.540095	0.272378	0.968555
322	C	0.569716	0.287189	0.009388
323	H	0.559154	0.281908	0.747685
324	H	0.559061	0.28186	0.937769
325	C	0.708	0.897364	0.009362
326	N	0.653466	0.869827	0.009367
327	C	0.625928	0.815294	0.009362
328	N	0.653464	0.788295	0.009367
329	C	0.707999	0.81529	0.009362
330	N	0.734997	0.869827	0.009367
331	C	0.819967	0.621299	0.009467
332	N	0.874493	0.6488	0.009462
333	C	0.901995	0.703324	0.009467
334	N	0.874496	0.730348	0.009462
335	C	0.819971	0.703328	0.009467
336	N	0.792945	0.648804	0.009462
337	C	0.75089	0.772404	0.05025
338	N	0.778143	0.745152	0.049206
339	C	0.791965	0.731339	0.009442
340	N	0.778173	0.745127	0.302984
341	C	0.750918	0.772376	0.301888
342	C	0.736104	0.787183	0.34272
343	H	0.741385	0.781904	0.081017
344	H	0.741434	0.781856	0.271103
345	C	0.750891	0.983145	0.05025
346	N	0.778142	0.537648	0.049206
347	C	0.791959	0.565282	0.009442
348	N	0.778168	0.5377	0.302984
349	C	0.750917	0.983197	0.301888
350	C	0.736108	0.953578	0.342723
351	H	0.741388	0.964141	0.081017
352	H	0.741435	0.964233	0.271103
353	C	0.540149	0.772404	0.050251
354	N	0.985643	0.745148	0.049206
355	C	0.95801	0.731331	0.009442
356	N	0.985593	0.745123	0.302984
357	C	0.540095	0.772376	0.301888
358	C	0.569715	0.787187	0.342723
359	H	0.559154	0.781908	0.081017
360	H	0.559059	0.78186	0.271103
361	C	0.708	0.897364	0.342696
362	N	0.653466	0.869827	0.342699
363	C	0.625928	0.815294	0.342696
364	N	0.653464	0.788295	0.342699
365	C	0.707999	0.81529	0.342696
366	N	0.734997	0.869827	0.342699
367	C	0.819967	0.621299	0.342801
368	N	0.874493	0.6488	0.342794
369	C	0.901995	0.703324	0.342801
370	N	0.874496	0.730348	0.342794
371	C	0.819971	0.703328	0.342801
372	N	0.792945	0.648804	0.342794
373	C	0.75089	0.772404	0.383584
374	N	0.778143	0.745152	0.382538
375	C	0.791965	0.731339	0.342774
376	N	0.778173	0.745127	0.636318
377	C	0.750918	0.772376	0.635221
378	C	0.736104	0.787183	0.676054
379	H	0.741385	0.781904	0.41435
380	H	0.741434	0.781856	0.604434
381	C	0.750891	0.983145	0.383584
382	N	0.778142	0.537648	0.382538
383	C	0.791959	0.565282	0.342774
384	N	0.778168	0.5377	0.636318
385	C	0.750917	0.983197	0.635221
386	C	0.736108	0.953578	0.676054
387	H	0.741388	0.964141	0.41435
388	H	0.741435	0.964233	0.604434
389	C	0.540149	0.772404	0.383584
390	N	0.985643	0.745148	0.382538
391	C	0.95801	0.731331	0.342774
392	N	0.985593	0.745123	0.636318
393	C	0.540095	0.772376	0.635221
394	C	0.569715	0.787187	0.676054
395	H	0.559154	0.781908	0.41435
396	H	0.559059	0.78186	0.604434
397	C	0.708	0.897364	0.676027
398	N	0.653466	0.869827	0.676034
399	C	0.625928	0.815294	0.676027
400	N	0.653464	0.788295	0.676034
401	C	0.707999	0.81529	0.676027
402	N	0.734997	0.869827	0.676034
403	C	0.819967	0.621299	0.676133
404	N	0.874493	0.6488	0.676129
405	C	0.901995	0.703324	0.676133
406	N	0.874496	0.730348	0.676129
407	C	0.819971	0.703328	0.676133
408	N	0.792945	0.648804	0.676129
409	C	0.75089	0.772404	0.716915
410	N	0.778143	0.745152	0.715873
411	C	0.791965	0.731339	0.676109
412	N	0.778173	0.745127	0.969649
413	C	0.750918	0.772376	0.968555
414	C	0.736104	0.787183	0.009388
415	H	0.741385	0.781904	0.747685
416	H	0.741434	0.781856	0.937769
417	C	0.750891	0.983145	0.716915
418	N	0.778142	0.537648	0.715873
419	C	0.791959	0.565282	0.676109
420	N	0.778168	0.5377	0.969649
421	C	0.750917	0.983197	0.968555
422	C	0.736108	0.953578	0.009388
423	H	0.741388	0.964141	0.747685
424	H	0.741435	0.964233	0.937769
425	C	0.540149	0.772404	0.716915
426	N	0.985643	0.745148	0.715873
427	C	0.95801	0.731331	0.676109
428	N	0.985593	0.745123	0.969649
429	C	0.540095	0.772376	0.968555
430	C	0.569715	0.787187	0.009388
431	H	0.559154	0.781908	0.747685
432	H	0.559059	0.78186	0.937769
