data_C171H108N36_2018-02-15_10:46:05
#******************************************
#
# CIF file created by Zeo++
# Zeo++ is an open source package to
# analyze microporous materials
#
#*******************************************

_cell_length_a		29.1803   
_cell_length_b		29.1804   
_cell_length_c		29.9878   
_cell_angle_alpha		90   
_cell_angle_beta		90   
_cell_angle_gamma		120   

_symmetry_space_group_name_H-M		'P1'
_symmetry_Int_Tables_number		1
_symmetry_cell_setting		Monoclinic

loop_
_symmetry_equiv_pos_as_xyz
'+x,+y,+z'

loop_
_atom_site_label
_atom_site_type_symbol
_atom_site_fract_x
_atom_site_fract_y
_atom_site_fract_z
1	C	0.362991	0.640028	0.007503
2	C	0.307202	0.611343	0.007143
3	C	0.277446	0.637519	0.007523
4	C	0.304551	0.69331	0.007165
5	C	0.360484	0.723064	0.007555
6	C	0.389171	0.695962	0.007188
7	H	0.283213	0.712443	0.006207
8	H	0.429641	0.717302	0.006229
9	H	0.28807	0.570873	0.006173
10	N	0.387844	0.612316	0.006326
11	N	0.224884	0.612664	0.006295
12	N	0.388197	0.77563	0.006358
13	C	0.637509	0.360188	1.5e-05
14	C	0.693288	0.3891	0.000515
15	C	0.72309	0.362996	6.1e-05
16	C	0.696226	0.307218	0.000506
17	C	0.640316	0.277414	8e-06
18	C	0.611406	0.304281	0.000483
19	H	0.717578	0.288073	0.001203
20	H	0.570908	0.282928	0.001167
21	H	0.712429	0.429596	0.001219
22	N	0.612006	0.387219	0.00083
23	N	0.775628	0.388504	0.000868
24	N	0.613281	0.224879	0.000815
25	C	0.451146	0.587078	0.013593
26	C	0.471575	0.571245	0.049801
27	N	0.489459	0.53704	0.041775
28	C	0.489295	0.516368	0.00119
29	C	0.469012	0.53061	0.297348
30	C	0.450213	0.5662	0.304096
31	H	0.436246	0.57745	0.277331
32	C	0.509077	0.481375	0.329077
33	C	0.548997	0.434756	0.027618
34	C	0.549405	0.412134	0.319377
35	C	0.52838	0.425046	0.282089
36	N	0.529172	0.467866	0.030983
37	C	0.508342	0.459999	0.286335
38	C	0.487906	0.474189	0.249514
39	C	0.468538	0.50934	0.254952
40	H	0.487184	0.459267	0.218466
41	H	0.454097	0.519229	0.22775
42	H	0.528156	0.409336	0.251454
43	H	0.563133	0.426348	0.055797
44	C	0.474683	0.588103	0.096843
45	H	0.458131	0.613879	0.102133
46	H	0.515987	0.60923	0.107472
47	H	0.452906	0.553272	0.11796
48	C	0.434641	0.623705	0.018343
49	C	0.568759	0.377724	0.314913
50	H	0.55014	0.346736	0.294637
51	H	0.459211	0.658488	0.03214
52	C	0.413411	0.864167	0.013608
53	C	0.429266	0.90043	0.049819
54	N	0.463479	0.952517	0.041789
55	C	0.484145	0.973019	0.001203
56	C	0.469903	0.938493	0.297363
57	C	0.434308	0.884103	0.304114
58	H	0.423048	0.858884	0.27735
59	C	0.519142	0.027795	0.329087
60	C	0.565765	0.114336	0.027622
61	C	0.588375	0.137364	0.319378
62	C	0.575463	0.103425	0.282092
63	N	0.532652	0.0614	0.030991
64	C	0.540509	0.048432	0.286343
65	C	0.526318	0.013804	0.249523
66	C	0.491173	0.959284	0.254965
67	H	0.541242	0.027999	0.218475
68	H	0.481283	0.934952	0.227766
69	H	0.591175	0.118906	0.251458
70	H	0.574177	0.136883	0.055801
71	C	0.412419	0.886687	0.096863
72	H	0.386628	0.844358	0.102156
73	H	0.391307	0.906876	0.107499
74	H	0.447252	0.899729	0.117974
75	C	0.376801	0.811035	0.018372
76	C	0.622786	0.191128	0.314915
77	H	0.653797	0.203485	0.294667
78	H	0.342019	0.800813	0.032178
79	C	0.136345	0.549358	0.013572
80	C	0.100101	0.528975	0.049795
81	N	0.048009	0.511093	0.041779
82	C	0.027488	0.511236	0.001196
83	C	0.062001	0.531504	0.297345
84	C	0.116392	0.5503	0.304081
85	H	0.141598	0.564241	0.277307
86	C	0.972713	0.49145	0.329092
87	C	0.886181	0.451539	0.027649
88	C	0.863139	0.451107	0.319409
89	C	0.897063	0.472124	0.282114
90	N	0.939118	0.471368	0.031006
91	C	0.95206	0.492166	0.286352
92	C	0.986673	0.512585	0.249522
93	C	0.041192	0.531963	0.254951
94	H	0.972465	0.513305	0.218476
95	H	0.065514	0.546395	0.227744
96	H	0.881572	0.472333	0.25148
97	H	0.863643	0.437408	0.055833
98	C	0.113861	0.525877	0.096835
99	H	0.156194	0.542434	0.102119
100	H	0.093687	0.484577	0.10747
101	H	0.100816	0.547661	0.117953
102	C	0.189478	0.56586	0.018303
103	C	0.809374	0.431753	0.314955
104	H	0.797001	0.450379	0.29469
105	H	0.199697	0.541337	0.032188
106	C	0.362991	0.640028	0.340836
107	C	0.307202	0.611343	0.340476
108	C	0.277446	0.637519	0.340856
109	C	0.304551	0.69331	0.340499
110	C	0.360484	0.723064	0.340889
111	C	0.389171	0.695962	0.340522
112	H	0.283213	0.712443	0.339538
113	H	0.429641	0.717302	0.339562
114	H	0.28807	0.570873	0.339505
115	N	0.387844	0.612316	0.339659
116	N	0.224884	0.612664	0.339629
117	N	0.388197	0.77563	0.339692
118	C	0.637509	0.360188	0.33335
119	C	0.693288	0.3891	0.333849
120	C	0.72309	0.362996	0.333397
121	C	0.696226	0.307218	0.333839
122	C	0.640316	0.277414	0.333342
123	C	0.611406	0.304281	0.333816
124	H	0.717578	0.288073	0.334536
125	H	0.570908	0.282928	0.3345
126	H	0.712429	0.429596	0.334553
127	N	0.612006	0.387219	0.334163
128	N	0.775628	0.388504	0.3342
129	N	0.613281	0.224879	0.33415
130	C	0.451146	0.587078	0.346925
131	C	0.471575	0.571245	0.383133
132	N	0.489459	0.53704	0.375106
133	C	0.489295	0.516368	0.334523
134	C	0.469012	0.53061	0.630681
135	C	0.450213	0.5662	0.63743
136	H	0.436246	0.57745	0.610662
137	C	0.509077	0.481375	0.66241
138	C	0.548997	0.434756	0.360951
139	C	0.549405	0.412134	0.65271
140	C	0.52838	0.425046	0.615421
141	N	0.529172	0.467866	0.364315
142	C	0.508342	0.459999	0.619669
143	C	0.487906	0.474189	0.582848
144	C	0.468538	0.50934	0.588283
145	H	0.487184	0.459267	0.551798
146	H	0.454097	0.519229	0.561082
147	H	0.528156	0.409336	0.584785
148	H	0.563133	0.426348	0.389129
149	C	0.474683	0.588103	0.430175
150	H	0.458131	0.613879	0.435468
151	H	0.515987	0.60923	0.440806
152	H	0.452906	0.553272	0.451294
153	C	0.434641	0.623705	0.351677
154	C	0.568759	0.377724	0.648244
155	H	0.55014	0.346736	0.627969
156	H	0.459211	0.658488	0.365472
157	C	0.413411	0.864167	0.346941
158	C	0.429266	0.90043	0.383153
159	N	0.463479	0.952517	0.375123
160	C	0.484145	0.973019	0.334536
161	C	0.469903	0.938493	0.630697
162	C	0.434308	0.884103	0.637447
163	H	0.423048	0.858884	0.610682
164	C	0.519142	0.027795	0.66242
165	C	0.565765	0.114336	0.360954
166	C	0.588375	0.137364	0.652713
167	C	0.575463	0.103425	0.615424
168	N	0.532652	0.0614	0.364325
169	C	0.540509	0.048432	0.619676
170	C	0.526318	0.013804	0.582858
171	C	0.491173	0.959284	0.5883
172	H	0.541242	0.027999	0.551808
173	H	0.481283	0.934952	0.561099
174	H	0.591175	0.118906	0.584792
175	H	0.574177	0.136883	0.389135
176	C	0.412419	0.886687	0.430195
177	H	0.386628	0.844358	0.435491
178	H	0.391307	0.906876	0.44083
179	H	0.447252	0.899729	0.451307
180	C	0.376801	0.811035	0.351703
181	C	0.622786	0.191128	0.648248
182	H	0.653797	0.203485	0.627999
183	H	0.342019	0.800813	0.365512
184	C	0.136345	0.549358	0.346905
185	C	0.100101	0.528975	0.38313
186	N	0.048009	0.511093	0.375113
187	C	0.027488	0.511236	0.33453
188	C	0.062001	0.531504	0.630677
189	C	0.116392	0.5503	0.637413
190	H	0.141598	0.564241	0.610639
191	C	0.972713	0.49145	0.662427
192	C	0.886181	0.451539	0.360981
193	C	0.863139	0.451107	0.652743
194	C	0.897063	0.472124	0.615448
195	N	0.939118	0.471368	0.364339
196	C	0.95206	0.492166	0.619686
197	C	0.986673	0.512585	0.582854
198	C	0.041192	0.531963	0.588283
199	H	0.972465	0.513305	0.551808
200	H	0.065514	0.546395	0.561075
201	H	0.881572	0.472333	0.584812
202	H	0.863643	0.437408	0.389165
203	C	0.113861	0.525877	0.430169
204	H	0.156194	0.542434	0.435451
205	H	0.093687	0.484577	0.440803
206	H	0.100816	0.547661	0.451284
207	C	0.189478	0.56586	0.351637
208	C	0.809374	0.431753	0.648288
209	H	0.797001	0.450379	0.628023
210	H	0.199697	0.541337	0.365522
211	C	0.362991	0.640028	0.674168
212	C	0.307202	0.611343	0.673808
213	C	0.277446	0.637519	0.674188
214	C	0.304551	0.69331	0.673831
215	C	0.360484	0.723064	0.674222
216	C	0.389171	0.695962	0.673855
217	H	0.283213	0.712443	0.672871
218	H	0.429641	0.717302	0.672894
219	H	0.28807	0.570873	0.672838
220	N	0.387844	0.612316	0.672991
221	N	0.224884	0.612664	0.672961
222	N	0.388197	0.77563	0.673024
223	C	0.637509	0.360188	0.666682
224	C	0.693288	0.3891	0.667182
225	C	0.72309	0.362996	0.666729
226	C	0.696226	0.307218	0.667172
227	C	0.640316	0.277414	0.666675
228	C	0.611406	0.304281	0.667149
229	H	0.717578	0.288073	0.667869
230	H	0.570908	0.282928	0.667832
231	H	0.712429	0.429596	0.667886
232	N	0.612006	0.387219	0.667496
233	N	0.775628	0.388504	0.667532
234	N	0.613281	0.224879	0.667482
235	C	0.451146	0.587078	0.680257
236	C	0.471575	0.571245	0.716466
237	N	0.489459	0.53704	0.708442
238	C	0.489295	0.516368	0.667856
239	C	0.469012	0.53061	0.964013
240	C	0.450213	0.5662	0.970763
241	H	0.436246	0.57745	0.943998
242	C	0.509077	0.481375	0.995743
243	C	0.548997	0.434756	0.694283
244	C	0.549405	0.412134	0.986042
245	C	0.52838	0.425046	0.948754
246	N	0.529172	0.467866	0.697648
247	C	0.508342	0.459999	0.953002
248	C	0.487906	0.474189	0.91618
249	C	0.468538	0.50934	0.921616
250	H	0.487184	0.459267	0.885131
251	H	0.454097	0.519229	0.894415
252	H	0.528156	0.409336	0.918121
253	H	0.563133	0.426348	0.722465
254	C	0.474683	0.588103	0.763508
255	H	0.458131	0.613879	0.7688
256	H	0.515987	0.60923	0.774139
257	H	0.452906	0.553272	0.784627
258	C	0.434641	0.623705	0.685009
259	C	0.568759	0.377724	0.98158
260	H	0.55014	0.346736	0.961302
261	H	0.459211	0.658488	0.698805
262	C	0.413411	0.864167	0.680274
263	C	0.429266	0.90043	0.716486
264	N	0.463479	0.952517	0.708456
265	C	0.484145	0.973019	0.667869
266	C	0.469903	0.938493	0.96403
267	C	0.434308	0.884103	0.970779
268	H	0.423048	0.858884	0.944015
269	C	0.519142	0.027795	0.995753
270	C	0.565765	0.114336	0.69429
271	C	0.588375	0.137364	0.986045
272	C	0.575463	0.103425	0.948757
273	N	0.532652	0.0614	0.697658
274	C	0.540509	0.048432	0.953009
275	C	0.526318	0.013804	0.91619
276	C	0.491173	0.959284	0.921633
277	H	0.541242	0.027999	0.885141
278	H	0.481283	0.934952	0.894431
279	H	0.591175	0.118906	0.918124
280	H	0.574177	0.136883	0.722468
281	C	0.412419	0.886687	0.763528
282	H	0.386628	0.844358	0.768824
283	H	0.391307	0.906876	0.774166
284	H	0.447252	0.899729	0.78464
285	C	0.376801	0.811035	0.685039
286	C	0.622786	0.191128	0.98158
287	H	0.653797	0.203485	0.961332
288	H	0.342019	0.800813	0.698845
289	C	0.136345	0.549358	0.680237
290	C	0.100101	0.528975	0.716462
291	N	0.048009	0.511093	0.708446
292	C	0.027488	0.511236	0.667862
293	C	0.062001	0.531504	0.96401
294	C	0.116392	0.5503	0.970746
295	H	0.141598	0.564241	0.943972
296	C	0.972713	0.49145	0.995759
297	C	0.886181	0.451539	0.694313
298	C	0.863139	0.451107	0.986075
299	C	0.897063	0.472124	0.94878
300	N	0.939118	0.471368	0.697671
301	C	0.95206	0.492166	0.953019
302	C	0.986673	0.512585	0.916187
303	C	0.041192	0.531963	0.921616
304	H	0.972465	0.513305	0.885141
305	H	0.065514	0.546395	0.894408
306	H	0.881572	0.472333	0.918148
307	H	0.863643	0.437408	0.722498
308	C	0.113861	0.525877	0.763501
309	H	0.156194	0.542434	0.768784
310	H	0.093687	0.484577	0.774136
311	H	0.100816	0.547661	0.78462
312	C	0.189478	0.56586	0.684969
313	C	0.809374	0.431753	0.98162
314	H	0.797001	0.450379	0.961355
315	H	0.199697	0.541337	0.698855
