data_C180H114N24O12_2018-02-15_10:48:12
#******************************************
#
# CIF file created by Zeo++
# Zeo++ is an open source package to
# analyze microporous materials
#
#*******************************************

_cell_length_a		25.8082   
_cell_length_b		25.8061   
_cell_length_c		29.5124   
_cell_angle_alpha		90   
_cell_angle_beta		90   
_cell_angle_gamma		89.9701   

_symmetry_space_group_name_H-M		'P1'
_symmetry_Int_Tables_number		1
_symmetry_cell_setting		Monoclinic

loop_
_symmetry_equiv_pos_as_xyz
'+x,+y,+z'

loop_
_atom_site_label
_atom_site_type_symbol
_atom_site_fract_x
_atom_site_fract_y
_atom_site_fract_z
1	C	0.787293	0.999383	0.041645
2	C	0.732663	0.999453	0.042309
3	C	0.016116	0.787685	0.036752
4	C	0.016184	0.733055	0.036208
5	C	0.282011	0.017131	0.036189
6	C	0.227386	0.017359	0.036779
7	C	0.998035	0.227598	0.04147
8	C	0.997875	0.282233	0.042184
9	H	0.99086	0.300795	0.072231
10	H	0.991172	0.207821	0.070933
11	H	0.208599	0.024986	0.066599
12	H	0.301234	0.024785	0.065691
13	H	0.023898	0.806553	0.066499
14	H	0.024242	0.713889	0.065661
15	H	0.714045	0.992346	0.072308
16	H	0.807015	0.992222	0.071089
17	C	0.002987	0.525825	0.043587
18	C	0.003371	0.472066	0.034496
19	H	0.998703	0.537446	0.076577
20	O	0.996852	0.439462	0.07032
21	C	0.010709	0.615978	0.020789
22	H	0.016466	0.624863	0.053151
23	C	0.48918	0.004084	0.043418
24	C	0.542942	0.004514	0.034362
25	H	0.477547	0.999774	0.0764
26	O	0.575524	0.997953	0.0702
27	C	0.399033	0.01172	0.020589
28	H	0.390153	0.017306	0.052975
29	C	0.91077	0.142915	0.33369
30	C	0.872787	0.105232	0.333944
31	C	0.896816	0.056693	0.333354
32	N	0.948445	0.066956	0.333054
33	C	0.959124	0.1185	0.333416
34	C	0.007766	0.144719	0.333315
35	C	0.056741	0.11934	0.332543
36	N	0.066698	0.067815	0.332004
37	C	0.118138	0.057447	0.331451
38	C	0.14279	0.105625	0.331449
39	C	0.105104	0.143616	0.332461
40	C	0.143128	0.008267	0.330738
41	C	0.116495	0.959842	0.330594
42	N	0.064865	0.949589	0.330991
43	C	0.054167	0.898043	0.330734
44	C	0.102507	0.873618	0.330042
45	C	0.1405	0.911284	0.330287
46	C	0.005519	0.871828	0.330803
47	C	0.956556	0.897214	0.331471
48	N	0.946629	0.948736	0.332063
49	C	0.895198	0.95909	0.332862
50	C	0.870518	0.910931	0.332623
51	C	0.9082	0.872932	0.332057
52	C	0.870219	0.008261	0.333483
53	C	0.814677	0.008856	0.334325
54	C	0.703697	0.008959	0.335877
55	C	0.731272	0.01877	0.295258
56	C	0.785895	0.018555	0.294463
57	C	0.005679	0.816268	0.330248
58	C	0.005443	0.705267	0.329218
59	C	0.995047	0.73402	0.289504
60	C	0.995193	0.788658	0.289901
61	C	0.198697	0.00759	0.330208
62	C	0.226226	0.997426	0.289748
63	C	0.280861	0.996965	0.289305
64	C	0.309717	0.006761	0.329075
65	C	0.007527	0.200281	0.334109
66	C	0.01697	0.229158	0.294253
67	C	0.007229	0.311287	0.335776
68	C	0.01699	0.283784	0.295104
69	H	0.024437	0.30316	0.265637
70	H	0.024135	0.210515	0.264277
71	H	0.903485	0.181847	0.333818
72	H	0.833919	0.112815	0.334459
73	H	0.974668	0.040524	0.332854
74	H	0.03865	0.976028	0.331283
75	H	0.112477	0.182519	0.332884
76	H	0.181744	0.112697	0.330933
77	H	0.206604	0.990319	0.260251
78	H	0.299572	0.989521	0.259408
79	H	0.179365	0.903665	0.330143
80	H	0.109781	0.834686	0.329533
81	H	0.831553	0.903882	0.332923
82	H	0.900824	0.834027	0.332053
83	H	0.987507	0.808215	0.260479
84	H	0.98728	0.715241	0.259707
85	H	0.804606	0.025613	0.2645
86	H	0.711941	0.026316	0.265782
87	N	0.005051	0.653523	0.325741
88	N	0.361461	0.006304	0.325532
89	N	0.006912	0.36302	0.339525
90	N	0.65197	0.008616	0.339535
91	C	0.014826	0.491046	0.288116
92	C	0.014424	0.544797	0.297192
93	C	0.008975	0.563362	0.008904
94	C	0.009147	0.453423	0.322801
95	O	0.022127	0.577503	0.261613
96	H	0.019612	0.479514	0.255156
97	H	0.987931	0.583001	0.247707
98	H	0.031597	0.433362	0.082946
99	C	0.010019	0.400692	0.310967
100	H	0.013225	0.391686	0.27836
101	C	0.524007	0.015953	0.287969
102	C	0.470253	0.015505	0.297015
103	C	0.451657	0.010037	0.008715
104	C	0.56161	0.010307	0.32268
105	O	0.437561	0.023146	0.261413
106	H	0.535559	0.020736	0.255023
107	H	0.432102	0.98892	0.247553
108	H	0.581499	0.032674	0.082911
109	C	0.614348	0.011118	0.310879
110	H	0.623399	0.01371	0.278255
111	C	0.91077	0.142915	0.667021
112	C	0.872787	0.105232	0.667275
113	C	0.896816	0.056693	0.666686
114	N	0.948445	0.066956	0.666388
115	C	0.959124	0.1185	0.66675
116	C	0.007766	0.144719	0.666649
117	C	0.056741	0.11934	0.665876
118	N	0.066698	0.067815	0.665337
119	C	0.118138	0.057447	0.664785
120	C	0.14279	0.105625	0.664782
121	C	0.105104	0.143616	0.665795
122	C	0.143128	0.008267	0.66407
123	C	0.116495	0.959842	0.663928
124	N	0.064865	0.949589	0.664324
125	C	0.054167	0.898043	0.664067
126	C	0.102507	0.873618	0.663375
127	C	0.1405	0.911284	0.663619
128	C	0.005519	0.871828	0.664134
129	C	0.956556	0.897214	0.664805
130	N	0.946629	0.948736	0.665398
131	C	0.895198	0.95909	0.666194
132	C	0.870518	0.910931	0.665957
133	C	0.9082	0.872932	0.665391
134	C	0.870219	0.008261	0.666815
135	C	0.814677	0.008856	0.667658
136	C	0.787293	0.999383	0.374978
137	C	0.732663	0.999453	0.375642
138	C	0.703697	0.008959	0.66921
139	C	0.731272	0.01877	0.62859
140	C	0.785895	0.018555	0.627797
141	C	0.005679	0.816268	0.663582
142	C	0.016116	0.787685	0.370085
143	C	0.016184	0.733055	0.369543
144	C	0.005443	0.705267	0.662552
145	C	0.995047	0.73402	0.622836
146	C	0.995193	0.788658	0.623233
147	C	0.198697	0.00759	0.663541
148	C	0.226226	0.997426	0.62308
149	C	0.280861	0.996965	0.62264
150	C	0.309717	0.006761	0.66241
151	C	0.282011	0.017131	0.369523
152	C	0.227386	0.017359	0.370112
153	C	0.007527	0.200281	0.667441
154	C	0.01697	0.229158	0.627587
155	C	0.998035	0.227598	0.374802
156	C	0.997875	0.282233	0.375517
157	C	0.007229	0.311287	0.669109
158	C	0.01699	0.283784	0.628437
159	H	0.024437	0.30316	0.598972
160	H	0.024135	0.210515	0.59761
161	H	0.99086	0.300795	0.405565
162	H	0.991172	0.207821	0.404267
163	H	0.903485	0.181847	0.66715
164	H	0.833919	0.112815	0.667794
165	H	0.974668	0.040524	0.666188
166	H	0.03865	0.976028	0.664615
167	H	0.112477	0.182519	0.666218
168	H	0.181744	0.112697	0.664266
169	H	0.206604	0.990319	0.593584
170	H	0.299572	0.989521	0.592741
171	H	0.208599	0.024986	0.399934
172	H	0.301234	0.024785	0.399025
173	H	0.179365	0.903665	0.663477
174	H	0.109781	0.834686	0.662867
175	H	0.831553	0.903882	0.666255
176	H	0.900824	0.834027	0.665388
177	H	0.023898	0.806553	0.399832
178	H	0.024242	0.713889	0.398995
179	H	0.987507	0.808215	0.593811
180	H	0.98728	0.715241	0.593039
181	H	0.804606	0.025613	0.597833
182	H	0.711941	0.026316	0.599114
183	H	0.714045	0.992346	0.40564
184	H	0.807015	0.992222	0.404423
185	N	0.005051	0.653523	0.659075
186	N	0.361461	0.006304	0.658865
187	N	0.006912	0.36302	0.672856
188	N	0.65197	0.008616	0.67287
189	C	0.014826	0.491046	0.621451
190	C	0.014424	0.544797	0.630525
191	C	0.008975	0.563362	0.342239
192	C	0.002987	0.525825	0.376919
193	C	0.003371	0.472066	0.367828
194	C	0.009147	0.453423	0.656134
195	H	0.998703	0.537446	0.409909
196	O	0.022127	0.577503	0.594946
197	H	0.019612	0.479514	0.588488
198	O	0.996852	0.439462	0.403654
199	H	0.987931	0.583001	0.58104
200	H	0.031597	0.433362	0.416279
201	C	0.010019	0.400692	0.644299
202	H	0.013225	0.391686	0.611692
203	C	0.010709	0.615978	0.354122
204	H	0.016466	0.624863	0.386485
205	C	0.524007	0.015953	0.621301
206	C	0.470253	0.015505	0.630349
207	C	0.451657	0.010037	0.342049
208	C	0.48918	0.004084	0.37675
209	C	0.542942	0.004514	0.367696
210	C	0.56161	0.010307	0.656012
211	H	0.477547	0.999774	0.409733
212	O	0.437561	0.023146	0.594747
213	H	0.535559	0.020736	0.588356
214	O	0.575524	0.997953	0.403535
215	H	0.432102	0.98892	0.580888
216	H	0.581499	0.032674	0.416245
217	C	0.614348	0.011118	0.644214
218	H	0.623399	0.01371	0.611587
219	C	0.399033	0.01172	0.353922
220	H	0.390153	0.017306	0.386309
221	C	0.91077	0.142915	0.000356
222	C	0.872787	0.105232	0.00061
223	C	0.896816	0.056693	2e-05
224	N	0.948445	0.066956	0.999722
225	C	0.959124	0.1185	8.5e-05
226	C	0.007766	0.144719	0.999983
227	C	0.056741	0.11934	0.99921
228	N	0.066698	0.067815	0.998672
229	C	0.118138	0.057447	0.998119
230	C	0.14279	0.105625	0.998116
231	C	0.105104	0.143616	0.999129
232	C	0.143128	0.008267	0.997404
233	C	0.116495	0.959842	0.997262
234	N	0.064865	0.949589	0.997659
235	C	0.054167	0.898043	0.997401
236	C	0.102507	0.873618	0.99671
237	C	0.1405	0.911284	0.996954
238	C	0.005519	0.871828	0.997469
239	C	0.956556	0.897214	0.998136
240	N	0.946629	0.948736	0.998729
241	C	0.895198	0.95909	0.999529
242	C	0.870518	0.910931	0.999288
243	C	0.9082	0.872932	0.998722
244	C	0.870219	0.008261	0.000149
245	C	0.814677	0.008856	0.000993
246	C	0.787293	0.999383	0.708312
247	C	0.732663	0.999453	0.708976
248	C	0.703697	0.008959	0.002545
249	C	0.731272	0.01877	0.961924
250	C	0.785895	0.018555	0.961128
251	C	0.005679	0.816268	0.996916
252	C	0.016116	0.787685	0.70342
253	C	0.016184	0.733055	0.702874
254	C	0.005443	0.705267	0.995886
255	C	0.995047	0.73402	0.956171
256	C	0.995193	0.788658	0.956567
257	C	0.198697	0.00759	0.996876
258	C	0.226226	0.997426	0.956415
259	C	0.280861	0.996965	0.955971
260	C	0.309717	0.006761	0.995741
261	C	0.282011	0.017131	0.702857
262	C	0.227386	0.017359	0.703447
263	C	0.007527	0.200281	0.000776
264	C	0.01697	0.229158	0.960921
265	C	0.998035	0.227598	0.708136
266	C	0.997875	0.282233	0.708851
267	C	0.007229	0.311287	0.002443
268	C	0.01699	0.283784	0.961772
269	H	0.024437	0.30316	0.932303
270	H	0.024135	0.210515	0.930944
271	H	0.99086	0.300795	0.738896
272	H	0.991172	0.207821	0.737598
273	H	0.903485	0.181847	0.000484
274	H	0.833919	0.112815	0.001125
275	H	0.974668	0.040524	0.999519
276	H	0.03865	0.976028	0.99795
277	H	0.112477	0.182519	0.999549
278	H	0.181744	0.112697	0.997601
279	H	0.206604	0.990319	0.926919
280	H	0.299572	0.989521	0.926075
281	H	0.208599	0.024986	0.733265
282	H	0.301234	0.024785	0.732356
283	H	0.179365	0.903665	0.996808
284	H	0.109781	0.834686	0.996198
285	H	0.831553	0.903882	0.99959
286	H	0.900824	0.834027	0.998719
287	H	0.023898	0.806553	0.733166
288	H	0.024242	0.713889	0.732326
289	H	0.987507	0.808215	0.927146
290	H	0.98728	0.715241	0.926373
291	H	0.804606	0.025613	0.931168
292	H	0.711941	0.026316	0.932449
293	H	0.714045	0.992346	0.738974
294	H	0.807015	0.992222	0.737754
295	N	0.005051	0.653523	0.992406
296	N	0.361461	0.006304	0.9922
297	N	0.006912	0.36302	0.006191
298	N	0.65197	0.008616	0.006204
299	C	0.014826	0.491046	0.954782
300	C	0.014424	0.544797	0.963859
301	C	0.008975	0.563362	0.67557
302	C	0.002987	0.525825	0.710254
303	C	0.003371	0.472066	0.701163
304	C	0.009147	0.453423	0.989469
305	H	0.998703	0.537446	0.743243
306	O	0.022127	0.577503	0.928281
307	H	0.019612	0.479514	0.921823
308	O	0.996852	0.439462	0.736988
309	H	0.987931	0.583001	0.914375
310	H	0.031597	0.433362	0.749614
311	C	0.010019	0.400692	0.977633
312	H	0.013225	0.391686	0.945026
313	C	0.010709	0.615978	0.687457
314	H	0.016466	0.624863	0.719816
315	C	0.524007	0.015953	0.954636
316	C	0.470253	0.015505	0.963683
317	C	0.451657	0.010037	0.67538
318	C	0.48918	0.004084	0.710085
319	C	0.542942	0.004514	0.701027
320	C	0.56161	0.010307	0.989347
321	H	0.477547	0.999774	0.743067
322	O	0.437561	0.023146	0.928081
323	H	0.535559	0.020736	0.92169
324	O	0.575524	0.997953	0.736866
325	H	0.432102	0.98892	0.914219
326	H	0.581499	0.032674	0.74958
327	C	0.614348	0.011118	0.977545
328	H	0.623399	0.01371	0.944921
329	C	0.399033	0.01172	0.687257
330	H	0.390153	0.017306	0.719643
