data_C168H96N42O12_2018-02-15_10:47:46
#******************************************
#
# CIF file created by Zeo++
# Zeo++ is an open source package to
# analyze microporous materials
#
#*******************************************

_cell_length_a		25.5838   
_cell_length_b		25.5836   
_cell_length_c		29.1856   
_cell_angle_alpha		90   
_cell_angle_beta		90   
_cell_angle_gamma		90.0372   

_symmetry_space_group_name_H-M		'P1'
_symmetry_Int_Tables_number		1
_symmetry_cell_setting		Monoclinic

loop_
_symmetry_equiv_pos_as_xyz
'+x,+y,+z'

loop_
_atom_site_label
_atom_site_type_symbol
_atom_site_fract_x
_atom_site_fract_y
_atom_site_fract_z
1	C	0.785889	0.018685	0.04019
2	C	0.731087	0.015218	0.035534
3	C	0.017492	0.240048	0.039962
4	C	0.014294	0.294874	0.035357
5	C	0.294046	0.008334	0.035368
6	C	0.239211	0.007783	0.040659
7	C	0.007231	0.786958	0.040659
8	C	0.007508	0.732114	0.03539
9	H	0.999852	0.70944	0.063479
10	H	0.999541	0.80255	0.072239
11	H	0.223669	0.999712	0.072189
12	H	0.316755	0.00054	0.063401
13	H	0.026072	0.224418	0.07135
14	H	0.020505	0.317559	0.063719
15	H	0.708338	0.021553	0.063831
16	H	0.801436	0.027669	0.071528
17	N	0.012284	0.484752	0.051687
18	C	0.01151	0.537755	0.0552
19	C	0.014401	0.568271	0.015108
20	H	0.009226	0.55477	0.086817
21	N	0.014399	0.620394	0.017641
22	N	0.541278	0.012771	0.051713
23	C	0.488275	0.012067	0.055184
24	C	0.457812	0.015215	0.015079
25	H	0.471223	0.009616	0.086777
26	N	0.405693	0.015234	0.017585
27	C	0.918397	0.875953	0.339962
28	C	0.879408	0.913234	0.340105
29	C	0.902744	0.962653	0.340956
30	N	0.954974	0.953268	0.342347
31	C	0.966678	0.901492	0.341316
32	C	0.016214	0.875984	0.340708
33	C	0.065129	0.902485	0.341096
34	N	0.074222	0.954612	0.342152
35	C	0.125903	0.965979	0.341241
36	C	0.151637	0.917866	0.339676
37	C	0.114319	0.878865	0.339925
38	C	0.150141	0.01605	0.340748
39	C	0.122418	0.064409	0.34107
40	N	0.070192	0.073831	0.34244
41	C	0.058492	0.12559	0.34078
42	C	0.106778	0.151097	0.339102
43	C	0.145772	0.113794	0.339584
44	C	0.008941	0.151061	0.339931
45	C	0.96001	0.124529	0.340563
46	N	0.9509	0.072405	0.341535
47	C	0.899203	0.061036	0.340747
48	C	0.873449	0.10912	0.339331
49	C	0.910775	0.148113	0.339619
50	C	0.874961	0.010981	0.340168
51	C	0.81917	0.009116	0.335763
52	C	0.707841	0.001631	0.326421
53	C	0.741497	0.992531	0.288694
54	C	0.796143	0.996507	0.293166
55	C	0.007965	0.206862	0.335456
56	C	0.001083	0.318224	0.326206
57	C	0.992122	0.284662	0.288382
58	C	0.9958	0.229996	0.29281
59	C	0.205911	0.01769	0.336323
60	C	0.228899	0.028224	0.293306
61	C	0.283594	0.029025	0.288166
62	C	0.31742	0.018979	0.325636
63	C	0.017019	0.820198	0.336252
64	C	0.027179	0.797152	0.293197
65	C	0.017778	0.708681	0.325618
66	C	0.027698	0.742453	0.288076
67	H	0.035265	0.727521	0.256202
68	H	0.03425	0.82012	0.26514
69	H	0.911761	0.836595	0.338676
70	H	0.840378	0.904819	0.339142
71	H	0.980883	0.980363	0.34307
72	H	0.044283	0.04675	0.343542
73	H	0.122421	0.839773	0.338793
74	H	0.19102	0.911448	0.338223
75	H	0.205887	0.035255	0.265276
76	H	0.298486	0.036802	0.256312
77	H	0.184812	0.122133	0.338332
78	H	0.113383	0.190428	0.337199
79	H	0.834057	0.115512	0.338001
80	H	0.902619	0.187193	0.338622
81	H	0.988499	0.207063	0.264778
82	H	0.982372	0.299734	0.257014
83	H	0.819142	0.989264	0.265168
84	H	0.726504	0.982564	0.257345
85	C	0.994751	0.372056	0.320752
86	C	0.371524	0.019241	0.318625
87	C	0.017894	0.654568	0.318634
88	C	0.654006	0.995314	0.32088
89	H	0.971842	0.384401	0.295401
90	H	0.384485	0.02304	0.286614
91	H	0.021233	0.641603	0.286585
92	H	0.641651	0.972472	0.295476
93	C	0.015114	0.458587	0.344516
94	N	0.018223	0.542035	0.307999
95	C	0.018824	0.488915	0.303944
96	N	0.024662	0.465529	0.260557
97	O	0.987769	0.478909	0.234712
98	O	0.066732	0.479917	0.242319
99	N	0.016881	0.406487	0.346506
100	C	0.567487	0.015774	0.34457
101	N	0.484089	0.019183	0.308
102	C	0.537217	0.019721	0.303991
103	N	0.560673	0.025713	0.260647
104	O	0.547211	0.988955	0.234667
105	O	0.546418	0.067884	0.242541
106	N	0.619584	0.017452	0.346609
107	C	0.785889	0.018685	0.373523
108	C	0.731087	0.015218	0.368867
109	C	0.017492	0.240048	0.373297
110	C	0.014294	0.294874	0.368692
111	C	0.294046	0.008334	0.368702
112	C	0.239211	0.007783	0.373992
113	C	0.007231	0.786958	0.373992
114	C	0.007508	0.732114	0.368723
115	C	0.014401	0.568271	0.348442
116	N	0.014399	0.620394	0.350974
117	C	0.457812	0.015215	0.348415
118	N	0.405693	0.015234	0.350919
119	N	0.012284	0.484752	0.385022
120	C	0.01151	0.537755	0.388534
121	N	0.541278	0.012771	0.385046
122	C	0.488275	0.012067	0.388517
123	N	0.016881	0.406487	0.013174
124	N	0.619584	0.017452	0.013276
125	C	0.918397	0.875953	0.673294
126	C	0.879408	0.913234	0.673438
127	C	0.902744	0.962653	0.674291
128	N	0.954974	0.953268	0.675682
129	C	0.966678	0.901492	0.674651
130	C	0.016214	0.875984	0.674041
131	C	0.065129	0.902485	0.674428
132	N	0.074222	0.954612	0.675487
133	C	0.125903	0.965979	0.674575
134	C	0.151637	0.917866	0.673009
135	C	0.114319	0.878865	0.67326
136	C	0.150141	0.01605	0.674082
137	C	0.122418	0.064409	0.674404
138	N	0.070192	0.073831	0.675775
139	C	0.058492	0.12559	0.674113
140	C	0.106778	0.151097	0.672437
141	C	0.145772	0.113794	0.672917
142	C	0.008941	0.151061	0.673266
143	C	0.96001	0.124529	0.673897
144	N	0.9509	0.072405	0.67487
145	C	0.899203	0.061036	0.674078
146	C	0.873449	0.10912	0.672663
147	C	0.910775	0.148113	0.672951
148	C	0.874961	0.010981	0.673503
149	C	0.81917	0.009116	0.669097
150	C	0.707841	0.001631	0.659753
151	C	0.741497	0.992531	0.622029
152	C	0.796143	0.996507	0.6265
153	C	0.007965	0.206862	0.668788
154	C	0.001083	0.318224	0.659541
155	C	0.992122	0.284662	0.621717
156	C	0.9958	0.229996	0.626144
157	C	0.205911	0.01769	0.669655
158	C	0.228899	0.028224	0.626641
159	C	0.283594	0.029025	0.621498
160	C	0.31742	0.018979	0.658972
161	C	0.017019	0.820198	0.669587
162	C	0.027179	0.797152	0.626531
163	C	0.017778	0.708681	0.658951
164	C	0.027698	0.742453	0.621409
165	H	0.035265	0.727521	0.589537
166	H	0.03425	0.82012	0.598473
167	H	0.999852	0.70944	0.396812
168	H	0.999541	0.80255	0.405573
169	H	0.911761	0.836595	0.672009
170	H	0.840378	0.904819	0.672475
171	H	0.980883	0.980363	0.676402
172	H	0.044283	0.04675	0.676878
173	H	0.122421	0.839773	0.672125
174	H	0.19102	0.911448	0.671557
175	H	0.205887	0.035255	0.59861
176	H	0.298486	0.036802	0.589647
177	H	0.223669	0.999712	0.405522
178	H	0.316755	0.00054	0.396736
179	H	0.184812	0.122133	0.671666
180	H	0.113383	0.190428	0.670532
181	H	0.834057	0.115512	0.671334
182	H	0.902619	0.187193	0.671954
183	H	0.026072	0.224418	0.404682
184	H	0.020505	0.317559	0.397052
185	H	0.988499	0.207063	0.59811
186	H	0.982372	0.299734	0.590349
187	H	0.819142	0.989264	0.5985
188	H	0.726504	0.982564	0.590678
189	H	0.708338	0.021553	0.397165
190	H	0.801436	0.027669	0.40486
191	C	0.994751	0.372056	0.654086
192	C	0.371524	0.019241	0.651958
193	C	0.017894	0.654568	0.651968
194	C	0.654006	0.995314	0.654213
195	H	0.971842	0.384401	0.628734
196	H	0.384485	0.02304	0.619949
197	H	0.021233	0.641603	0.619918
198	H	0.641651	0.972472	0.62881
199	C	0.015114	0.458587	0.677847
200	N	0.018223	0.542035	0.641333
201	C	0.018824	0.488915	0.637276
202	H	0.009226	0.55477	0.420152
203	N	0.024662	0.465529	0.593892
204	O	0.987769	0.478909	0.568047
205	O	0.066732	0.479917	0.575653
206	N	0.016881	0.406487	0.679842
207	C	0.567487	0.015774	0.677906
208	N	0.484089	0.019183	0.641333
209	C	0.537217	0.019721	0.637324
210	H	0.471223	0.009616	0.420111
211	N	0.560673	0.025713	0.593981
212	O	0.547211	0.988955	0.568002
213	O	0.546418	0.067884	0.575876
214	N	0.619584	0.017452	0.679941
215	C	0.918397	0.875953	0.006629
216	C	0.879408	0.913234	0.006773
217	C	0.902744	0.962653	0.007623
218	N	0.954974	0.953268	0.009014
219	C	0.966678	0.901492	0.007983
220	C	0.016214	0.875984	0.007376
221	C	0.065129	0.902485	0.007763
222	N	0.074222	0.954612	0.008819
223	C	0.125903	0.965979	0.007907
224	C	0.151637	0.917866	0.006345
225	C	0.114319	0.878865	0.006592
226	C	0.150141	0.01605	0.007414
227	C	0.122418	0.064409	0.007736
228	N	0.070192	0.073831	0.009106
229	C	0.058492	0.12559	0.007448
230	C	0.106778	0.151097	0.005769
231	C	0.145772	0.113794	0.006252
232	C	0.008941	0.151061	0.006598
233	C	0.96001	0.124529	0.007229
234	N	0.9509	0.072405	0.008202
235	C	0.899203	0.061036	0.007414
236	C	0.873449	0.10912	0.005999
237	C	0.910775	0.148113	0.006287
238	C	0.874961	0.010981	0.006835
239	C	0.81917	0.009116	0.002432
240	C	0.785889	0.018685	0.706858
241	C	0.731087	0.015218	0.702202
242	C	0.707841	0.001631	0.993088
243	C	0.741497	0.992531	0.955361
244	C	0.796143	0.996507	0.959832
245	C	0.007965	0.206862	0.002124
246	C	0.017492	0.240048	0.706629
247	C	0.014294	0.294874	0.702024
248	C	0.001083	0.318224	0.992872
249	C	0.992122	0.284662	0.955049
250	C	0.9958	0.229996	0.959476
251	C	0.205911	0.01769	0.00299
252	C	0.228899	0.028224	0.959973
253	C	0.283594	0.029025	0.954833
254	C	0.31742	0.018979	0.992304
255	C	0.294046	0.008334	0.702034
256	C	0.239211	0.007783	0.707324
257	C	0.017019	0.820198	0.002918
258	C	0.027179	0.797152	0.959863
259	C	0.007231	0.786958	0.707328
260	C	0.007508	0.732114	0.702058
261	C	0.017778	0.708681	0.992283
262	C	0.027698	0.742453	0.954744
263	H	0.035265	0.727521	0.922869
264	H	0.03425	0.82012	0.931808
265	H	0.999852	0.70944	0.730147
266	H	0.999541	0.80255	0.738905
267	H	0.911761	0.836595	0.005344
268	H	0.840378	0.904819	0.00581
269	H	0.980883	0.980363	0.009737
270	H	0.044283	0.04675	0.01021
271	H	0.122421	0.839773	0.005461
272	H	0.19102	0.911448	0.004889
273	H	0.205887	0.035255	0.931942
274	H	0.298486	0.036802	0.922978
275	H	0.223669	0.999712	0.738857
276	H	0.316755	0.00054	0.730068
277	H	0.184812	0.122133	0.004998
278	H	0.113383	0.190428	0.003868
279	H	0.834057	0.115512	0.004669
280	H	0.902619	0.187193	0.00529
281	H	0.026072	0.224418	0.738018
282	H	0.020505	0.317559	0.730387
283	H	0.988499	0.207063	0.931445
284	H	0.982372	0.299734	0.923681
285	H	0.819142	0.989264	0.931836
286	H	0.726504	0.982564	0.924013
287	H	0.708338	0.021553	0.7305
288	H	0.801436	0.027669	0.738196
289	C	0.994751	0.372056	0.987418
290	C	0.371524	0.019241	0.985293
291	C	0.017894	0.654568	0.9853
292	C	0.654006	0.995314	0.987548
293	H	0.971842	0.384401	0.96207
294	H	0.384485	0.02304	0.953281
295	H	0.021233	0.641603	0.953254
296	H	0.641651	0.972472	0.962142
297	C	0.015114	0.458587	0.011179
298	N	0.012284	0.484752	0.718354
299	C	0.01151	0.537755	0.721869
300	C	0.014401	0.568271	0.681774
301	N	0.018223	0.542035	0.974665
302	C	0.018824	0.488915	0.970611
303	H	0.009226	0.55477	0.753484
304	N	0.024662	0.465529	0.927224
305	O	0.987769	0.478909	0.901379
306	O	0.066732	0.479917	0.908985
307	N	0.014399	0.620394	0.684306
308	C	0.567487	0.015774	0.011238
309	N	0.541278	0.012771	0.718381
310	C	0.488275	0.012067	0.721852
311	C	0.457812	0.015215	0.681747
312	N	0.484089	0.019183	0.974668
313	C	0.537217	0.019721	0.970659
314	H	0.471223	0.009616	0.753443
315	N	0.560673	0.025713	0.927313
316	O	0.547211	0.988955	0.901334
317	O	0.546418	0.067884	0.909208
318	N	0.405693	0.015234	0.684251
