data_C216H180N72_2018-02-15_10:45:35
#******************************************
#
# CIF file created by Zeo++
# Zeo++ is an open source package to
# analyze microporous materials
#
#*******************************************

_cell_length_a		34.4469   
_cell_length_b		34.4469   
_cell_length_c		29.2894   
_cell_angle_alpha		90   
_cell_angle_beta		90   
_cell_angle_gamma		120   

_symmetry_space_group_name_H-M		'P1'
_symmetry_Int_Tables_number		1
_symmetry_cell_setting		Monoclinic

loop_
_symmetry_equiv_pos_as_xyz
'+x,+y,+z'

loop_
_atom_site_label
_atom_site_type_symbol
_atom_site_fract_x
_atom_site_fract_y
_atom_site_fract_z
1	C	0.993512	0.963509	0.011373
2	N	0.039007	0.990343	0.011189
3	C	0.059438	0.036076	0.011408
4	N	0.032606	0.054737	0.011203
5	C	0.986871	0.029438	0.011408
6	N	0.96821	0.983943	0.011186
7	N	0.976153	0.918829	0.010079
8	N	0.959553	0.046803	0.010093
9	N	0.104118	0.063399	0.010097
10	C	0.400263	0.197667	0.01163
11	N	0.425747	0.177337	0.011752
12	C	0.471441	0.201927	0.012235
13	N	0.490899	0.246951	0.012399
14	C	0.467648	0.269158	0.012128
15	N	0.421936	0.243677	0.011681
16	N	0.355429	0.171422	0.010373
17	N	0.48998	0.31428	0.012227
18	N	0.501018	0.188111	0.012659
19	C	0.825281	0.208673	0.01165
20	N	0.845608	0.254488	0.011814
21	C	0.821019	0.275592	0.012315
22	N	0.775994	0.250024	0.012465
23	C	0.75379	0.204565	0.012145
24	N	0.779271	0.184334	0.011681
25	N	0.851529	0.190085	0.010404
26	N	0.708669	0.181771	0.012237
27	N	0.834834	0.318986	0.012813
28	C	0.814306	0.622679	0.01165
29	N	0.76849	0.59719	0.011814
30	C	0.747388	0.551497	0.012323
31	N	0.772955	0.532041	0.012476
32	C	0.818414	0.555295	0.012153
33	N	0.838643	0.601008	0.011681
34	N	0.832887	0.66751	0.01038
35	N	0.841205	0.532963	0.012241
36	N	0.703997	0.521921	0.01282
37	C	0.277966	0.148675	0.008427
38	C	0.255378	0.124653	0.048044
39	C	0.208809	0.094928	0.048116
40	C	0.182279	0.088307	0.342223
41	C	0.20435	0.111944	0.30141
42	H	0.194316	0.07806	0.077726
43	H	0.272705	0.128819	0.077759
44	C	0.252105	0.142524	0.301352
45	C	0.178062	0.104707	0.258322
46	H	0.142402	0.080734	0.261398
47	H	0.190832	0.09204	0.23157
48	H	0.181037	0.136274	0.247119
49	C	0.274782	0.167475	0.25852
50	H	0.310911	0.189272	0.261599
51	H	0.261034	0.188601	0.248182
52	H	0.269446	0.143829	0.231168
53	C	0.323594	0.180875	0.012448
54	H	0.331366	0.21273	0.015053
55	C	0.136792	0.055116	0.344931
56	H	0.129816	0.023532	0.348044
57	C	0.874278	0.135371	0.00843
58	C	0.898289	0.136794	0.048052
59	C	0.928026	0.119965	0.048126
60	C	0.934689	0.100098	0.342226
61	C	0.911025	0.098498	0.301418
62	H	0.94489	0.122341	0.077737
63	H	0.894119	0.149954	0.077767
64	C	0.880435	0.11566	0.301357
65	C	0.918262	0.079442	0.258331
66	H	0.942252	0.067777	0.261402
67	H	0.930906	0.104871	0.231571
68	H	0.886697	0.050836	0.247143
69	C	0.855477	0.113375	0.258526
70	H	0.833674	0.127697	0.261604
71	H	0.834361	0.0785	0.24819
72	H	0.87912	0.13169	0.231174
73	C	0.842075	0.148796	0.012452
74	H	0.810215	0.124707	0.014984
75	C	0.967853	0.087766	0.344937
76	H	0.999441	0.112361	0.348065
77	C	0.887596	0.744978	0.008424
78	C	0.886163	0.767571	0.048037
79	C	0.903002	0.814139	0.048105
80	C	0.922908	0.840667	0.342209
81	C	0.924472	0.81859	0.301399
82	H	0.900629	0.828633	0.077713
83	H	0.873007	0.750247	0.077755
84	C	0.907301	0.770836	0.301345
85	C	0.943523	0.844878	0.258308
86	H	0.955207	0.880537	0.261381
87	H	0.918083	0.832103	0.231558
88	H	0.972113	0.841901	0.247105
89	C	0.909576	0.748156	0.258516
90	H	0.895246	0.71203	0.261597
91	H	0.94445	0.761906	0.248176
92	H	0.891262	0.753489	0.231163
93	C	0.874174	0.699352	0.012449
94	H	0.898261	0.691585	0.015064
95	C	0.9352	0.886152	0.34491
96	H	0.910588	0.893125	0.348007
97	C	0.63593	0.175042	0.347952
98	C	0.614981	0.177402	0.30744
99	C	0.57014	0.167228	0.307318
100	C	0.544585	0.154966	0.014536
101	C	0.564475	0.151086	0.055882
102	H	0.557132	0.171427	0.277497
103	H	0.632996	0.189343	0.277857
104	C	0.610442	0.161358	0.055931
105	C	0.538337	0.138343	0.099601
106	H	0.503926	0.131286	0.096061
107	H	0.554649	0.165444	0.124374
108	H	0.53651	0.108108	0.113559
109	C	0.631965	0.159133	0.099601
110	H	0.666285	0.166066	0.095669
111	H	0.613057	0.125597	0.114233
112	H	0.632635	0.183407	0.123978
113	C	0.682577	0.198756	0.347515
114	H	0.696072	0.231877	0.349342
115	C	0.502579	0.151687	0.012423
116	H	0.474761	0.121969	0.012487
117	C	0.847942	0.46696	0.347945
118	C	0.845649	0.443696	0.307418
119	C	0.855806	0.409015	0.30731
120	C	0.868059	0.395724	0.014536
121	C	0.871912	0.419477	0.055882
122	H	0.851505	0.391745	0.277513
123	H	0.833579	0.449666	0.277869
124	C	0.861623	0.45516	0.05593
125	C	0.884646	0.406079	0.099603
126	H	0.891745	0.378752	0.09605
127	H	0.857524	0.395248	0.124358
128	H	0.914856	0.434491	0.113589
129	C	0.863814	0.478887	0.099604
130	H	0.856857	0.50626	0.095675
131	H	0.897343	0.493529	0.114249
132	H	0.839537	0.455264	0.12397
133	C	0.824222	0.489888	0.347501
134	H	0.7911	0.470255	0.349318
135	C	0.87127	0.356957	0.012436
136	H	0.900976	0.358837	0.012111
137	C	0.555994	0.387015	0.347959
138	C	0.579306	0.407966	0.307446
139	C	0.613982	0.452804	0.30733
140	C	0.627284	0.47834	0.014557
141	C	0.603492	0.458462	0.055896
142	H	0.631193	0.465813	0.277513
143	H	0.57323	0.389955	0.27786
144	C	0.567795	0.412498	0.055938
145	C	0.616871	0.484605	0.099612
146	H	0.64422	0.519022	0.096068
147	H	0.627658	0.468301	0.124396
148	H	0.588457	0.486429	0.113555
149	C	0.544039	0.390974	0.099603
150	H	0.516653	0.356652	0.095668
151	H	0.529405	0.40988	0.114227
152	H	0.567636	0.390304	0.123988
153	C	0.533054	0.340364	0.347512
154	H	0.552681	0.326869	0.349355
155	C	0.666009	0.520349	0.012459
156	H	0.66409	0.548155	0.012159
157	C	0.993512	0.963509	0.344705
158	N	0.039007	0.990343	0.344521
159	C	0.059438	0.036076	0.344743
160	N	0.032606	0.054737	0.344538
161	C	0.986871	0.029438	0.344739
162	N	0.96821	0.983943	0.344521
163	N	0.976153	0.918829	0.343411
164	N	0.959553	0.046803	0.343425
165	N	0.104118	0.063399	0.343432
166	C	0.400263	0.197667	0.344961
167	N	0.425747	0.177337	0.345088
168	C	0.471441	0.201927	0.345569
169	N	0.490899	0.246951	0.345733
170	C	0.467648	0.269158	0.345463
171	N	0.421936	0.243677	0.345012
172	N	0.355429	0.171422	0.343708
173	N	0.48998	0.31428	0.345559
174	N	0.501018	0.188111	0.345992
175	C	0.825281	0.208673	0.344982
176	N	0.845608	0.254488	0.345146
177	C	0.821019	0.275592	0.345647
178	N	0.775994	0.250024	0.345798
179	C	0.75379	0.204565	0.34548
180	N	0.779271	0.184334	0.345012
181	N	0.851529	0.190085	0.343739
182	N	0.708669	0.181771	0.345569
183	N	0.834834	0.318986	0.346146
184	C	0.814306	0.622679	0.344982
185	N	0.76849	0.59719	0.345146
186	C	0.747388	0.551497	0.345654
187	N	0.772955	0.532041	0.345808
188	C	0.818414	0.555295	0.345487
189	N	0.838643	0.601008	0.345012
190	N	0.832887	0.66751	0.343715
191	N	0.841205	0.532963	0.345576
192	N	0.703997	0.521921	0.346153
193	C	0.277966	0.148675	0.341762
194	C	0.255378	0.124653	0.381377
195	C	0.208809	0.094928	0.381449
196	C	0.182279	0.088307	0.675555
197	C	0.20435	0.111944	0.634742
198	H	0.194316	0.07806	0.41106
199	H	0.272705	0.128819	0.411091
200	C	0.252105	0.142524	0.634684
201	C	0.178062	0.104707	0.591655
202	H	0.142402	0.080734	0.594731
203	H	0.190832	0.09204	0.564904
204	H	0.181037	0.136274	0.580453
205	C	0.274782	0.167475	0.591853
206	H	0.310911	0.189272	0.594932
207	H	0.261034	0.188601	0.581515
208	H	0.269446	0.143829	0.564502
209	C	0.323594	0.180875	0.345781
210	H	0.331366	0.21273	0.348386
211	C	0.136792	0.055116	0.678263
212	H	0.129816	0.023532	0.681377
213	C	0.874278	0.135371	0.341762
214	C	0.898289	0.136794	0.381384
215	C	0.928026	0.119965	0.381459
216	C	0.934689	0.100098	0.675559
217	C	0.911025	0.098498	0.634752
218	H	0.94489	0.122341	0.411071
219	H	0.894119	0.149954	0.411101
220	C	0.880435	0.11566	0.634691
221	C	0.918262	0.079442	0.591665
222	H	0.942252	0.067777	0.594734
223	H	0.930906	0.104871	0.564904
224	H	0.886697	0.050836	0.580477
225	C	0.855477	0.113375	0.59186
226	H	0.833674	0.127697	0.594939
227	H	0.834361	0.0785	0.581521
228	H	0.87912	0.13169	0.564508
229	C	0.842075	0.148796	0.345784
230	H	0.810215	0.124707	0.348317
231	C	0.967853	0.087766	0.67827
232	H	0.999441	0.112361	0.681397
233	C	0.887596	0.744978	0.341755
234	C	0.886163	0.767571	0.38137
235	C	0.903002	0.814139	0.381439
236	C	0.922908	0.840667	0.675542
237	C	0.924472	0.81859	0.634732
238	H	0.900629	0.828633	0.411047
239	H	0.873007	0.750247	0.411088
240	C	0.907301	0.770836	0.634677
241	C	0.943523	0.844878	0.591641
242	H	0.955207	0.880537	0.594714
243	H	0.918083	0.832103	0.564891
244	H	0.972113	0.841901	0.580439
245	C	0.909576	0.748156	0.591849
246	H	0.895246	0.71203	0.594929
247	H	0.94445	0.761906	0.581511
248	H	0.891262	0.753489	0.564495
249	C	0.874174	0.699352	0.345781
250	H	0.898261	0.691585	0.348396
251	C	0.9352	0.886152	0.678242
252	H	0.910588	0.893125	0.681343
253	C	0.63593	0.175042	0.681288
254	C	0.614981	0.177402	0.640775
255	C	0.57014	0.167228	0.640652
256	C	0.544585	0.154966	0.34787
257	C	0.564475	0.151086	0.389216
258	H	0.557132	0.171427	0.610829
259	H	0.632996	0.189343	0.611191
260	C	0.610442	0.161358	0.389264
261	C	0.538337	0.138343	0.432935
262	H	0.503926	0.131286	0.429395
263	H	0.554649	0.165444	0.457709
264	H	0.53651	0.108108	0.446892
265	C	0.631965	0.159133	0.432935
266	H	0.666285	0.166066	0.429002
267	H	0.613057	0.125597	0.447565
268	H	0.632635	0.183407	0.457313
269	C	0.682577	0.198756	0.680848
270	H	0.696072	0.231877	0.682674
271	C	0.502579	0.151687	0.345757
272	H	0.474761	0.121969	0.345822
273	C	0.847942	0.46696	0.681281
274	C	0.845649	0.443696	0.640751
275	C	0.855806	0.409015	0.640642
276	C	0.868059	0.395724	0.34787
277	C	0.871912	0.419477	0.389216
278	H	0.851505	0.391745	0.610846
279	H	0.833579	0.449666	0.611201
280	C	0.861623	0.45516	0.389264
281	C	0.884646	0.406079	0.432935
282	H	0.891745	0.378752	0.429384
283	H	0.857524	0.395248	0.457692
284	H	0.914856	0.434491	0.446923
285	C	0.863814	0.478887	0.432939
286	H	0.856857	0.50626	0.429009
287	H	0.897343	0.493529	0.447582
288	H	0.839537	0.455264	0.457302
289	C	0.824222	0.489888	0.680834
290	H	0.7911	0.470255	0.68265
291	C	0.87127	0.356957	0.34577
292	H	0.900976	0.358837	0.345443
293	C	0.555994	0.387015	0.681291
294	C	0.579306	0.407966	0.640778
295	C	0.613982	0.452804	0.640662
296	C	0.627284	0.47834	0.347891
297	C	0.603492	0.458462	0.38923
298	H	0.631193	0.465813	0.610846
299	H	0.57323	0.389955	0.611194
300	C	0.567795	0.412498	0.389271
301	C	0.616871	0.484605	0.432945
302	H	0.64422	0.519022	0.429401
303	H	0.627658	0.468301	0.457729
304	H	0.588457	0.486429	0.446889
305	C	0.544039	0.390974	0.432935
306	H	0.516653	0.356652	0.429002
307	H	0.529405	0.40988	0.447562
308	H	0.567636	0.390304	0.457319
309	C	0.533054	0.340364	0.680844
310	H	0.552681	0.326869	0.682688
311	C	0.666009	0.520349	0.345791
312	H	0.66409	0.548155	0.34549
313	C	0.993512	0.963509	0.678041
314	N	0.039007	0.990343	0.677853
315	C	0.059438	0.036076	0.678075
316	N	0.032606	0.054737	0.67787
317	C	0.986871	0.029438	0.678072
318	N	0.96821	0.983943	0.677853
319	N	0.976153	0.918829	0.676744
320	N	0.959553	0.046803	0.676757
321	N	0.104118	0.063399	0.676764
322	C	0.400263	0.197667	0.678297
323	N	0.425747	0.177337	0.67842
324	C	0.471441	0.201927	0.678901
325	N	0.490899	0.246951	0.679065
326	C	0.467648	0.269158	0.678796
327	N	0.421936	0.243677	0.678345
328	N	0.355429	0.171422	0.677041
329	N	0.48998	0.31428	0.678891
330	N	0.501018	0.188111	0.679325
331	C	0.825281	0.208673	0.678318
332	N	0.845608	0.254488	0.678481
333	C	0.821019	0.275592	0.67898
334	N	0.775994	0.250024	0.67913
335	C	0.75379	0.204565	0.678813
336	N	0.779271	0.184334	0.678345
337	N	0.851529	0.190085	0.677071
338	N	0.708669	0.181771	0.678905
339	N	0.834834	0.318986	0.679478
340	C	0.814306	0.622679	0.678314
341	N	0.76849	0.59719	0.678481
342	C	0.747388	0.551497	0.67899
343	N	0.772955	0.532041	0.67914
344	C	0.818414	0.555295	0.678819
345	N	0.838643	0.601008	0.678345
346	N	0.832887	0.66751	0.677047
347	N	0.841205	0.532963	0.678908
348	N	0.703997	0.521921	0.679485
349	C	0.277966	0.148675	0.675095
350	C	0.255378	0.124653	0.71471
351	C	0.208809	0.094928	0.714781
352	C	0.182279	0.088307	0.008891
353	C	0.20435	0.111944	0.968078
354	H	0.194316	0.07806	0.744393
355	H	0.272705	0.128819	0.744427
356	C	0.252105	0.142524	0.968016
357	C	0.178062	0.104707	0.924987
358	H	0.142402	0.080734	0.928063
359	H	0.190832	0.09204	0.898237
360	H	0.181037	0.136274	0.913785
361	C	0.274782	0.167475	0.925185
362	H	0.310911	0.189272	0.928265
363	H	0.261034	0.188601	0.914847
364	H	0.269446	0.143829	0.897834
365	C	0.323594	0.180875	0.679113
366	H	0.331366	0.21273	0.681718
367	C	0.136792	0.055116	0.011595
368	H	0.129816	0.023532	0.014711
369	C	0.874278	0.135371	0.675095
370	C	0.898289	0.136794	0.714716
371	C	0.928026	0.119965	0.714792
372	C	0.934689	0.100098	0.008891
373	C	0.911025	0.098498	0.968085
374	H	0.94489	0.122341	0.744403
375	H	0.894119	0.149954	0.744434
376	C	0.880435	0.11566	0.968023
377	C	0.918262	0.079442	0.924997
378	H	0.942252	0.067777	0.928067
379	H	0.930906	0.104871	0.898237
380	H	0.886697	0.050836	0.913809
381	C	0.855477	0.113375	0.925192
382	H	0.833674	0.127697	0.928272
383	H	0.834361	0.0785	0.914857
384	H	0.87912	0.13169	0.897841
385	C	0.842075	0.148796	0.67912
386	H	0.810215	0.124707	0.68165
387	C	0.967853	0.087766	0.011602
388	H	0.999441	0.112361	0.014732
389	C	0.887596	0.744978	0.675091
390	C	0.886163	0.767571	0.714703
391	C	0.903002	0.814139	0.714771
392	C	0.922908	0.840667	0.008878
393	C	0.924472	0.81859	0.968064
394	H	0.900629	0.828633	0.744379
395	H	0.873007	0.750247	0.74442
396	C	0.907301	0.770836	0.96801
397	C	0.943523	0.844878	0.924974
398	H	0.955207	0.880537	0.928046
399	H	0.918083	0.832103	0.898223
400	H	0.972113	0.841901	0.913772
401	C	0.909576	0.748156	0.925182
402	H	0.895246	0.71203	0.928265
403	H	0.94445	0.761906	0.914844
404	H	0.891262	0.753489	0.897831
405	C	0.874174	0.699352	0.679117
406	H	0.898261	0.691585	0.681728
407	C	0.9352	0.886152	0.011578
408	H	0.910588	0.893125	0.014675
409	C	0.63593	0.175042	0.01462
410	C	0.614981	0.177402	0.974107
411	C	0.57014	0.167228	0.973984
412	C	0.544585	0.154966	0.681203
413	C	0.564475	0.151086	0.722549
414	H	0.557132	0.171427	0.944165
415	H	0.632996	0.189343	0.944523
416	C	0.610442	0.161358	0.722596
417	C	0.538337	0.138343	0.766268
418	H	0.503926	0.131286	0.762727
419	H	0.554649	0.165444	0.791041
420	H	0.53651	0.108108	0.780225
421	C	0.631965	0.159133	0.766268
422	H	0.666285	0.166066	0.762334
423	H	0.613057	0.125597	0.780897
424	H	0.632635	0.183407	0.790645
425	C	0.682577	0.198756	0.014182
426	H	0.696072	0.231877	0.016008
427	C	0.502579	0.151687	0.679089
428	H	0.474761	0.121969	0.679154
429	C	0.847942	0.46696	0.014614
430	C	0.845649	0.443696	0.974084
431	C	0.855806	0.409015	0.973978
432	C	0.868059	0.395724	0.681203
433	C	0.871912	0.419477	0.722549
434	H	0.851505	0.391745	0.944178
435	H	0.833579	0.449666	0.944534
436	C	0.861623	0.45516	0.722596
437	C	0.884646	0.406079	0.766271
438	H	0.891745	0.378752	0.762717
439	H	0.857524	0.395248	0.791024
440	H	0.914856	0.434491	0.780256
441	C	0.863814	0.478887	0.766271
442	H	0.856857	0.50626	0.762341
443	H	0.897343	0.493529	0.780915
444	H	0.839537	0.455264	0.790635
445	C	0.824222	0.489888	0.014167
446	H	0.7911	0.470255	0.015985
447	C	0.87127	0.356957	0.679103
448	H	0.900976	0.358837	0.678775
449	C	0.555994	0.387015	0.014624
450	C	0.579306	0.407966	0.974111
451	C	0.613982	0.452804	0.973995
452	C	0.627284	0.47834	0.681223
453	C	0.603492	0.458462	0.722562
454	H	0.631193	0.465813	0.944178
455	H	0.57323	0.389955	0.944527
456	C	0.567795	0.412498	0.722603
457	C	0.616871	0.484605	0.766278
458	H	0.64422	0.519022	0.762734
459	H	0.627658	0.468301	0.791062
460	H	0.588457	0.486429	0.780221
461	C	0.544039	0.390974	0.766271
462	H	0.516653	0.356652	0.762334
463	H	0.529405	0.40988	0.780894
464	H	0.567636	0.390304	0.790655
465	C	0.533054	0.340364	0.014179
466	H	0.552681	0.326869	0.016022
467	C	0.666009	0.520349	0.679127
468	H	0.66409	0.548155	0.678826
