data_C144H72N54O36_2018-02-15_10:45:43
#******************************************
#
# CIF file created by Zeo++
# Zeo++ is an open source package to
# analyze microporous materials
#
#*******************************************

_cell_length_a		29.4271   
_cell_length_b		29.427   
_cell_length_c		30.0272   
_cell_angle_alpha		90   
_cell_angle_beta		90   
_cell_angle_gamma		120   

_symmetry_space_group_name_H-M		'P1'
_symmetry_Int_Tables_number		1
_symmetry_cell_setting		Monoclinic

loop_
_symmetry_equiv_pos_as_xyz
'+x,+y,+z'

loop_
_atom_site_label
_atom_site_type_symbol
_atom_site_fract_x
_atom_site_fract_y
_atom_site_fract_z
1	C	0.369788	0.648652	0.004573
2	C	0.386641	0.702838	0.004697
3	C	0.350231	0.720915	0.00458
4	C	0.296043	0.683583	0.004671
5	C	0.277956	0.629091	0.004523
6	C	0.315297	0.612242	0.004621
7	H	0.269382	0.696281	0.006507
8	H	0.302596	0.572885	0.006505
9	H	0.425999	0.729497	0.006552
10	C	0.366613	0.773736	0.009387
11	C	0.22514	0.592657	0.009342
12	C	0.406206	0.632246	0.00939
13	H	0.437499	0.653396	0.028528
14	H	0.215006	0.561352	0.028461
15	H	0.34544	0.783875	0.028499
16	C	0.629431	0.351346	0.009633
17	C	0.611915	0.296977	0.009705
18	C	0.647526	0.277861	0.009621
19	C	0.701891	0.314713	0.009715
20	C	0.721011	0.36944	0.00962
21	C	0.684157	0.386955	0.009726
22	H	0.728075	0.30138	0.010539
23	H	0.69749	0.426466	0.010559
24	H	0.572403	0.270797	0.010536
25	C	0.630549	0.224476	0.011561
26	C	0.774392	0.405846	0.011587
27	C	0.593025	0.368322	0.011584
28	H	0.557107	0.34366	0.02273
29	H	0.785647	0.441758	0.022749
30	H	0.655213	0.213219	0.022711
31	C	0.430481	0.569106	0.327284
32	C	0.445054	0.552558	0.288617
33	N	0.475091	0.529725	0.29199
34	C	0.492199	0.520712	0.997989
35	C	0.477641	0.535301	0.038264
36	C	0.446649	0.55961	0.035499
37	H	0.435623	0.570248	0.064181
38	C	0.522273	0.495328	0.996633
39	C	0.566302	0.511239	0.301683
40	C	0.593125	0.482512	0.303302
41	C	0.576289	0.438686	0.998178
42	C	0.532371	0.425058	0.025634
43	N	0.507572	0.45329	0.023807
44	H	0.625438	0.493943	0.283581
45	H	0.519035	0.394576	0.047595
46	H	0.433716	0.557883	0.257801
47	N	0.583759	0.556047	0.274283
48	N	0.495209	0.527037	0.079747
49	O	0.583341	0.544742	0.233883
50	O	0.457318	0.497631	0.104484
51	O	0.523357	0.569592	0.099783
52	O	0.629394	0.59117	0.284566
53	N	0.604153	0.414467	0.998808
54	N	0.400094	0.590323	0.323857
55	C	0.429753	0.861153	0.327291
56	C	0.446305	0.89227	0.288622
57	N	0.469136	0.945142	0.291991
58	C	0.478141	0.971263	0.997989
59	C	0.463549	0.94212	0.038265
60	C	0.439242	0.88682	0.035504
61	H	0.428604	0.86516	0.064187
62	C	0.503527	0.026721	0.99663
63	C	0.487625	0.05484	0.301676
64	C	0.516355	0.11039	0.30329
65	C	0.560181	0.137377	0.998165
66	C	0.573807	0.10709	0.025623
67	N	0.545571	0.054057	0.0238
68	H	0.504924	0.13127	0.283567
69	H	0.604287	0.124233	0.047584
70	H	0.440986	0.875605	0.257808
71	N	0.44281	0.027487	0.274277
72	N	0.471812	0.967959	0.079746
73	O	0.454117	0.038369	0.233876
74	O	0.501214	0.959476	0.104487
75	O	0.429255	0.953551	0.099779
76	O	0.407691	0.038004	0.284558
77	N	0.584401	0.18946	0.998791
78	N	0.408552	0.809553	0.323871
79	C	0.13772	0.568384	0.327265
80	C	0.106594	0.553814	0.288601
81	N	0.053725	0.523772	0.291981
82	C	0.02761	0.50666	0.997982
83	C	0.056764	0.521222	0.038254
84	C	0.112064	0.552213	0.035483
85	H	0.133733	0.563239	0.064162
86	C	0.97215	0.476587	0.996633
87	C	0.94403	0.43256	0.301682
88	C	0.888479	0.40574	0.303301
89	C	0.861495	0.422586	0.998175
90	C	0.891784	0.466498	0.025632
91	N	0.944818	0.491294	0.023805
92	H	0.867597	0.37343	0.283579
93	H	0.874642	0.479836	0.047593
94	H	0.123253	0.565154	0.257785
95	N	0.971379	0.415099	0.274282
96	N	0.030937	0.50365	0.079739
97	O	0.960493	0.415519	0.233882
98	O	0.039426	0.54154	0.104478
99	O	0.045348	0.475504	0.099772
100	O	0.960862	0.369463	0.284564
101	N	0.809412	0.394722	0.998798
102	N	0.189321	0.598779	0.323834
103	C	0.369788	0.648652	0.337907
104	C	0.386641	0.702838	0.33803
105	C	0.350231	0.720915	0.337914
106	C	0.296043	0.683583	0.338004
107	C	0.277956	0.629091	0.337857
108	C	0.315297	0.612242	0.337954
109	H	0.269382	0.696281	0.339842
110	H	0.302596	0.572885	0.339839
111	H	0.425999	0.729497	0.339885
112	C	0.366613	0.773736	0.342719
113	C	0.22514	0.592657	0.342676
114	C	0.406206	0.632246	0.342723
115	H	0.437499	0.653396	0.361862
116	H	0.215006	0.561352	0.361795
117	H	0.34544	0.783875	0.361832
118	C	0.629431	0.351346	0.342966
119	C	0.611915	0.296977	0.343039
120	C	0.647526	0.277861	0.342956
121	C	0.701891	0.314713	0.343049
122	C	0.721011	0.36944	0.342952
123	C	0.684157	0.386955	0.343059
124	H	0.728075	0.30138	0.343872
125	H	0.69749	0.426466	0.343892
126	H	0.572403	0.270797	0.343868
127	C	0.630549	0.224476	0.344894
128	C	0.774392	0.405846	0.344921
129	C	0.593025	0.368322	0.344917
130	H	0.557107	0.34366	0.356064
131	H	0.785647	0.441758	0.356084
132	H	0.655213	0.213219	0.356044
133	C	0.430481	0.569106	0.660618
134	C	0.445054	0.552558	0.621949
135	N	0.475091	0.529725	0.625323
136	C	0.492199	0.520712	0.331322
137	C	0.477641	0.535301	0.371596
138	C	0.446649	0.55961	0.368832
139	H	0.435623	0.570248	0.397516
140	C	0.522273	0.495328	0.329968
141	C	0.566302	0.511239	0.635018
142	C	0.593125	0.482512	0.636636
143	C	0.576289	0.438686	0.331512
144	C	0.532371	0.425058	0.358968
145	N	0.507572	0.45329	0.35714
146	H	0.625438	0.493943	0.616914
147	H	0.519035	0.394576	0.380928
148	H	0.433716	0.557883	0.591134
149	N	0.583759	0.556047	0.607616
150	N	0.495209	0.527037	0.413079
151	O	0.583341	0.544742	0.567216
152	O	0.457318	0.497631	0.437816
153	O	0.523357	0.569592	0.433117
154	O	0.629394	0.59117	0.6179
155	N	0.604153	0.414467	0.33214
156	N	0.400094	0.590323	0.657191
157	C	0.429753	0.861153	0.660624
158	C	0.446305	0.89227	0.621956
159	N	0.469136	0.945142	0.625323
160	C	0.478141	0.971263	0.331321
161	C	0.463549	0.94212	0.3716
162	C	0.439242	0.88682	0.368839
163	H	0.428604	0.86516	0.39752
164	C	0.503527	0.026721	0.329963
165	C	0.487625	0.05484	0.635008
166	C	0.516355	0.11039	0.636623
167	C	0.560181	0.137377	0.331498
168	C	0.573807	0.10709	0.358958
169	N	0.545571	0.054057	0.357133
170	H	0.504924	0.13127	0.616901
171	H	0.604287	0.124233	0.380918
172	H	0.440986	0.875605	0.591141
173	N	0.44281	0.027487	0.607609
174	N	0.471812	0.967959	0.413079
175	O	0.454117	0.038369	0.567209
176	O	0.501214	0.959476	0.43782
177	O	0.429255	0.953551	0.433114
178	O	0.407691	0.038004	0.61789
179	N	0.584401	0.18946	0.332124
180	N	0.408552	0.809553	0.657204
181	C	0.13772	0.568384	0.660598
182	C	0.106594	0.553814	0.621936
183	N	0.053725	0.523772	0.625313
184	C	0.02761	0.50666	0.331315
185	C	0.056764	0.521222	0.371586
186	C	0.112064	0.552213	0.368816
187	H	0.133733	0.563239	0.397496
188	C	0.97215	0.476587	0.329967
189	C	0.94403	0.43256	0.635014
190	C	0.888479	0.40574	0.636633
191	C	0.861495	0.422586	0.331509
192	C	0.891784	0.466498	0.358965
193	N	0.944818	0.491294	0.35714
194	H	0.867597	0.37343	0.616911
195	H	0.874642	0.479836	0.380925
196	H	0.123253	0.565154	0.591117
197	N	0.971379	0.415099	0.607616
198	N	0.030937	0.50365	0.413072
199	O	0.960493	0.415519	0.567216
200	O	0.039426	0.54154	0.43781
201	O	0.045348	0.475504	0.433104
202	O	0.960862	0.369463	0.617896
203	N	0.809412	0.394722	0.332133
204	N	0.189321	0.598779	0.657168
205	C	0.369788	0.648652	0.671241
206	C	0.386641	0.702838	0.671365
207	C	0.350231	0.720915	0.671248
208	C	0.296043	0.683583	0.671338
209	C	0.277956	0.629091	0.671191
210	C	0.315297	0.612242	0.671288
211	H	0.269382	0.696281	0.673173
212	H	0.302596	0.572885	0.673173
213	H	0.425999	0.729497	0.67322
214	C	0.366613	0.773736	0.676054
215	C	0.22514	0.592657	0.676007
216	C	0.406206	0.632246	0.676057
217	H	0.437499	0.653396	0.695193
218	H	0.215006	0.561352	0.695126
219	H	0.34544	0.783875	0.695166
220	C	0.629431	0.351346	0.6763
221	C	0.611915	0.296977	0.676373
222	C	0.647526	0.277861	0.676287
223	C	0.701891	0.314713	0.67638
224	C	0.721011	0.36944	0.676287
225	C	0.684157	0.386955	0.676393
226	H	0.728075	0.30138	0.677206
227	H	0.69749	0.426466	0.677226
228	H	0.572403	0.270797	0.677203
229	C	0.630549	0.224476	0.678228
230	C	0.774392	0.405846	0.678255
231	C	0.593025	0.368322	0.678252
232	H	0.557107	0.34366	0.689398
233	H	0.785647	0.441758	0.689415
234	H	0.655213	0.213219	0.689378
235	C	0.430481	0.569106	0.993952
236	C	0.445054	0.552558	0.955284
237	N	0.475091	0.529725	0.958658
238	C	0.492199	0.520712	0.664654
239	C	0.477641	0.535301	0.704931
240	C	0.446649	0.55961	0.702167
241	H	0.435623	0.570248	0.730847
242	C	0.522273	0.495328	0.663302
243	C	0.566302	0.511239	0.968349
244	C	0.593125	0.482512	0.969971
245	C	0.576289	0.438686	0.664844
246	C	0.532371	0.425058	0.692299
247	N	0.507572	0.45329	0.690474
248	H	0.625438	0.493943	0.950248
249	H	0.519035	0.394576	0.714262
250	H	0.433716	0.557883	0.924469
251	N	0.583759	0.556047	0.94095
252	N	0.495209	0.527037	0.746413
253	O	0.583341	0.544742	0.90055
254	O	0.457318	0.497631	0.771151
255	O	0.523357	0.569592	0.766448
256	O	0.629394	0.59117	0.951231
257	N	0.604153	0.414467	0.665473
258	N	0.400094	0.590323	0.990522
259	C	0.429753	0.861153	0.993959
260	C	0.446305	0.89227	0.955287
261	N	0.469136	0.945142	0.958658
262	C	0.478141	0.971263	0.664654
263	C	0.463549	0.94212	0.704931
264	C	0.439242	0.88682	0.70217
265	H	0.428604	0.86516	0.730854
266	C	0.503527	0.026721	0.663295
267	C	0.487625	0.05484	0.968342
268	C	0.516355	0.11039	0.969957
269	C	0.560181	0.137377	0.664831
270	C	0.573807	0.10709	0.692289
271	N	0.545571	0.054057	0.690467
272	H	0.504924	0.13127	0.950235
273	H	0.604287	0.124233	0.714249
274	H	0.440986	0.875605	0.924475
275	N	0.44281	0.027487	0.940944
276	N	0.471812	0.967959	0.746413
277	O	0.454117	0.038369	0.900544
278	O	0.501214	0.959476	0.771154
279	O	0.429255	0.953551	0.766445
280	O	0.407691	0.038004	0.951224
281	N	0.584401	0.18946	0.665457
282	N	0.408552	0.809553	0.990539
283	C	0.13772	0.568384	0.993932
284	C	0.106594	0.553814	0.955267
285	N	0.053725	0.523772	0.958648
286	C	0.02761	0.50666	0.664647
287	C	0.056764	0.521222	0.704921
288	C	0.112064	0.552213	0.70215
289	H	0.133733	0.563239	0.730831
290	C	0.97215	0.476587	0.663299
291	C	0.94403	0.43256	0.968349
292	C	0.888479	0.40574	0.969967
293	C	0.861495	0.422586	0.664844
294	C	0.891784	0.466498	0.692299
295	N	0.944818	0.491294	0.690471
296	H	0.867597	0.37343	0.950245
297	H	0.874642	0.479836	0.714259
298	H	0.123253	0.565154	0.924452
299	N	0.971379	0.415099	0.940947
300	N	0.030937	0.50365	0.746407
301	O	0.960493	0.415519	0.900547
302	O	0.039426	0.54154	0.771144
303	O	0.045348	0.475504	0.766438
304	O	0.960862	0.369463	0.951231
305	N	0.809412	0.394722	0.665467
306	N	0.189321	0.598779	0.990502
