data_C162H108N54O36_2018-02-15_10:45:40
#******************************************
#
# CIF file created by Zeo++
# Zeo++ is an open source package to
# analyze microporous materials
#
#*******************************************

_cell_length_a		29.5255   
_cell_length_b		29.5255   
_cell_length_c		30.0216   
_cell_angle_alpha		90   
_cell_angle_beta		90   
_cell_angle_gamma		120   

_symmetry_space_group_name_H-M		'P1'
_symmetry_Int_Tables_number		1
_symmetry_cell_setting		Monoclinic

loop_
_symmetry_equiv_pos_as_xyz
'+x,+y,+z'

loop_
_atom_site_label
_atom_site_type_symbol
_atom_site_fract_x
_atom_site_fract_y
_atom_site_fract_z
1	C	0.370601	0.649539	0.991542
2	C	0.386274	0.703333	0.991522
3	C	0.34955	0.720877	0.991545
4	C	0.295759	0.682758	0.991505
5	C	0.278214	0.628491	0.991522
6	C	0.316333	0.612816	0.991498
7	H	0.268742	0.694893	0.991658
8	H	0.304196	0.573664	0.991655
9	H	0.425424	0.730345	0.991685
10	C	0.364649	0.773814	0.992078
11	C	0.225276	0.590649	0.992041
12	C	0.408441	0.634443	0.992075
13	H	0.446009	0.661839	0.990126
14	H	0.215102	0.553082	0.990079
15	H	0.337254	0.783991	0.990129
16	C	0.63014	0.351776	0.001057
17	C	0.612074	0.29751	0.000964
18	C	0.647309	0.278187	0.001065
19	C	0.701577	0.314385	0.000967
20	C	0.720913	0.368948	0.001103
21	C	0.684704	0.387009	0.000956
22	H	0.727401	0.300767	0.99923
23	H	0.698326	0.426452	0.99921
24	H	0.572635	0.271685	0.99919
25	C	0.629704	0.225236	0.996541
26	C	0.773859	0.404285	0.996568
27	C	0.594816	0.369405	0.996525
28	H	0.563221	0.34895	0.977612
29	H	0.784996	0.435865	0.977635
30	H	0.650158	0.214102	0.977625
31	C	0.573261	0.434152	0.011584
32	C	0.551521	0.443507	0.049966
33	C	0.522255	0.469198	0.045241
34	C	0.51559	0.486945	0.003306
35	C	0.538542	0.478611	0.298056
36	C	0.566909	0.451978	0.303021
37	H	0.58433	0.446335	0.275717
38	C	0.486327	0.513253	0.334879
39	C	0.505369	0.563262	0.020995
40	C	0.474707	0.587646	0.018197
41	C	0.425873	0.563598	0.329432
42	C	0.406291	0.513066	0.310586
43	C	0.43701	0.488697	0.313653
44	H	0.488344	0.623411	0.032898
45	H	0.423194	0.452279	0.300038
46	H	0.505937	0.475248	0.07311
47	N	0.554782	0.58815	0.042348
48	N	0.535588	0.496202	0.256827
49	H	0.552368	0.490641	0.231142
50	H	0.51856	0.516629	0.251838
51	N	0.35931	0.487532	0.289355
52	H	0.346574	0.45303	0.276372
53	H	0.337097	0.502933	0.286096
54	N	0.559158	0.426471	0.091917
55	O	0.550815	0.596727	0.082755
56	O	0.582696	0.464207	0.118336
57	O	0.585901	0.6307	0.023793
58	O	0.516356	0.393796	0.10923
59	N	0.602592	0.411923	0.015134
60	N	0.396668	0.586281	0.327983
61	C	0.564964	0.138927	0.011582
62	C	0.555614	0.10783	0.049962
63	C	0.529931	0.052874	0.045233
64	C	0.512175	0.028465	0.003298
65	C	0.52049	0.059753	0.298054
66	C	0.547121	0.114749	0.303021
67	H	0.552749	0.137818	0.275721
68	C	0.485861	0.972893	0.334869
69	C	0.435847	0.941931	0.020981
70	C	0.411456	0.886885	0.01818
71	C	0.435504	0.862094	0.329423
72	C	0.48604	0.893041	0.310583
73	C	0.510413	0.948125	0.313649
74	H	0.375693	0.864762	0.032882
75	H	0.546834	0.970726	0.300038
76	H	0.523877	0.030504	0.073101
77	N	0.410965	0.966463	0.042333
78	N	0.502889	0.03921	0.256827
79	H	0.50851	0.061554	0.231131
80	H	0.482539	0.001754	0.251813
81	N	0.511571	0.871586	0.289357
82	H	0.546072	0.893346	0.276378
83	H	0.496165	0.833971	0.2861
84	N	0.57265	0.1325	0.091915
85	O	0.402383	0.953917	0.082739
86	O	0.534912	0.118295	0.118335
87	O	0.368419	0.95504	0.023775
88	O	0.605329	0.122377	0.109223
89	N	0.587181	0.190486	0.015143
90	N	0.412812	0.810205	0.327978
91	C	0.860169	0.425842	0.011605
92	C	0.891268	0.447586	0.049984
93	C	0.946226	0.476867	0.045247
94	C	0.970626	0.483527	0.003308
95	C	0.939332	0.460566	0.298064
96	C	0.884333	0.432213	0.303034
97	H	0.861262	0.414778	0.275735
98	C	0.026197	0.51278	0.334872
99	C	0.057165	0.493734	0.020979
100	C	0.112209	0.524384	0.018166
101	C	0.136998	0.573211	0.329389
102	C	0.106047	0.592804	0.310564
103	C	0.05096	0.562096	0.313647
104	H	0.134335	0.510747	0.032867
105	H	0.028361	0.575921	0.30004
106	H	0.968602	0.493175	0.073114
107	N	0.032639	0.444325	0.042339
108	N	0.959868	0.463535	0.256829
109	H	0.937521	0.446757	0.231146
110	H	0.997321	0.480559	0.251833
111	N	0.127497	0.639785	0.289329
112	H	0.105731	0.652504	0.276319
113	H	0.165108	0.66196	0.286014
114	N	0.866609	0.43994	0.091942
115	O	0.045196	0.448294	0.082742
116	O	0.880822	0.416405	0.118351
117	O	0.044052	0.413194	0.02378
118	O	0.876725	0.482737	0.10926
119	N	0.808607	0.396518	0.015172
120	N	0.188887	0.602421	0.327952
121	C	0.370601	0.649539	0.324875
122	C	0.386274	0.703333	0.324855
123	C	0.34955	0.720877	0.324877
124	C	0.295759	0.682758	0.324839
125	C	0.278214	0.628491	0.324855
126	C	0.316333	0.612816	0.324832
127	H	0.268742	0.694893	0.32499
128	H	0.304196	0.573664	0.324986
129	H	0.425424	0.730345	0.325019
130	C	0.364649	0.773814	0.32541
131	C	0.225276	0.590649	0.325374
132	C	0.408441	0.634443	0.325406
133	H	0.446009	0.661839	0.323458
134	H	0.215102	0.553082	0.323411
135	H	0.337254	0.783991	0.323463
136	C	0.63014	0.351776	0.334392
137	C	0.612074	0.29751	0.334299
138	C	0.647309	0.278187	0.334399
139	C	0.701577	0.314385	0.334302
140	C	0.720913	0.368948	0.334436
141	C	0.684704	0.387009	0.334289
142	H	0.727401	0.300767	0.332562
143	H	0.698326	0.426452	0.332543
144	H	0.572635	0.271685	0.332521
145	C	0.629704	0.225236	0.329875
146	C	0.773859	0.404285	0.329901
147	C	0.594816	0.369405	0.329858
148	H	0.563221	0.34895	0.310946
149	H	0.784996	0.435865	0.310967
150	H	0.650158	0.214102	0.310957
151	C	0.573261	0.434152	0.344918
152	C	0.551521	0.443507	0.3833
153	C	0.522255	0.469198	0.378574
154	C	0.51559	0.486945	0.336641
155	C	0.538542	0.478611	0.631391
156	C	0.566909	0.451978	0.636355
157	H	0.58433	0.446335	0.609051
158	C	0.486327	0.513253	0.668212
159	C	0.505369	0.563262	0.354328
160	C	0.474707	0.587646	0.35153
161	C	0.425873	0.563598	0.662765
162	C	0.406291	0.513066	0.643919
163	C	0.43701	0.488697	0.646987
164	H	0.488344	0.623411	0.366233
165	H	0.423194	0.452279	0.63337
166	H	0.505937	0.475248	0.406444
167	N	0.554782	0.58815	0.375682
168	N	0.535588	0.496202	0.590161
169	H	0.552368	0.490641	0.564476
170	H	0.51856	0.516629	0.585171
171	N	0.35931	0.487532	0.622688
172	H	0.346574	0.45303	0.609707
173	H	0.337097	0.502933	0.61943
174	N	0.559158	0.426471	0.42525
175	O	0.550815	0.596727	0.41609
176	O	0.582696	0.464207	0.451671
177	O	0.585901	0.6307	0.357126
178	O	0.516356	0.393796	0.442564
179	N	0.602592	0.411923	0.348469
180	N	0.396668	0.586281	0.661317
181	C	0.564964	0.138927	0.344915
182	C	0.555614	0.10783	0.383294
183	C	0.529931	0.052874	0.378567
184	C	0.512175	0.028465	0.336631
185	C	0.52049	0.059753	0.631388
186	C	0.547121	0.114749	0.636355
187	H	0.552749	0.137818	0.609054
188	C	0.485861	0.972893	0.668202
189	C	0.435847	0.941931	0.354315
190	C	0.411456	0.886885	0.351513
191	C	0.435504	0.862094	0.662755
192	C	0.48604	0.893041	0.643916
193	C	0.510413	0.948125	0.646984
194	H	0.375693	0.864762	0.366216
195	H	0.546834	0.970726	0.633373
196	H	0.523877	0.030504	0.406434
197	N	0.410965	0.966463	0.375666
198	N	0.502889	0.03921	0.590161
199	H	0.50851	0.061554	0.564463
200	H	0.482539	0.001754	0.585148
201	N	0.511571	0.871586	0.622691
202	H	0.546072	0.893346	0.60971
203	H	0.496165	0.833971	0.619433
204	N	0.57265	0.1325	0.42525
205	O	0.402383	0.953917	0.416073
206	O	0.534912	0.118295	0.451668
207	O	0.368419	0.95504	0.357109
208	O	0.605329	0.122377	0.442558
209	N	0.587181	0.190486	0.348475
210	N	0.412812	0.810205	0.66131
211	C	0.860169	0.425842	0.344938
212	C	0.891268	0.447586	0.383317
213	C	0.946226	0.476867	0.37858
214	C	0.970626	0.483527	0.336641
215	C	0.939332	0.460566	0.631398
216	C	0.884333	0.432213	0.636368
217	H	0.861262	0.414778	0.609068
218	C	0.026197	0.51278	0.668205
219	C	0.057165	0.493734	0.354311
220	C	0.112209	0.524384	0.3515
221	C	0.136998	0.573211	0.662722
222	C	0.106047	0.592804	0.643899
223	C	0.05096	0.562096	0.64698
224	H	0.134335	0.510747	0.366199
225	H	0.028361	0.575921	0.633373
226	H	0.968602	0.493175	0.406447
227	N	0.032639	0.444325	0.375672
228	N	0.959868	0.463535	0.590161
229	H	0.937521	0.446757	0.56448
230	H	0.997321	0.480559	0.585168
231	N	0.127497	0.639785	0.622664
232	H	0.105731	0.652504	0.609654
233	H	0.165108	0.66196	0.619347
234	N	0.866609	0.43994	0.425277
235	O	0.045196	0.448294	0.416077
236	O	0.880822	0.416405	0.451684
237	O	0.044052	0.413194	0.357113
238	O	0.876725	0.482737	0.442594
239	N	0.808607	0.396518	0.348505
240	N	0.188887	0.602421	0.661287
241	C	0.370601	0.649539	0.658209
242	C	0.386274	0.703333	0.658189
243	C	0.34955	0.720877	0.658212
244	C	0.295759	0.682758	0.658172
245	C	0.278214	0.628491	0.658189
246	C	0.316333	0.612816	0.658165
247	H	0.268742	0.694893	0.658322
248	H	0.304196	0.573664	0.658319
249	H	0.425424	0.730345	0.658352
250	C	0.364649	0.773814	0.658742
251	C	0.225276	0.590649	0.658708
252	C	0.408441	0.634443	0.658738
253	H	0.446009	0.661839	0.656793
254	H	0.215102	0.553082	0.656743
255	H	0.337254	0.783991	0.656796
256	C	0.63014	0.351776	0.667725
257	C	0.612074	0.29751	0.667632
258	C	0.647309	0.278187	0.667732
259	C	0.701577	0.314385	0.667635
260	C	0.720913	0.368948	0.667769
261	C	0.684704	0.387009	0.667622
262	H	0.727401	0.300767	0.665897
263	H	0.698326	0.426452	0.665877
264	H	0.572635	0.271685	0.665857
265	C	0.629704	0.225236	0.663208
266	C	0.773859	0.404285	0.663235
267	C	0.594816	0.369405	0.663192
268	H	0.563221	0.34895	0.644279
269	H	0.784996	0.435865	0.644302
270	H	0.650158	0.214102	0.644289
271	C	0.573261	0.434152	0.678251
272	C	0.551521	0.443507	0.716633
273	C	0.522255	0.469198	0.711907
274	C	0.51559	0.486945	0.669974
275	C	0.538542	0.478611	0.964724
276	C	0.566909	0.451978	0.969688
277	H	0.58433	0.446335	0.942384
278	C	0.486327	0.513253	0.001544
279	C	0.505369	0.563262	0.687661
280	C	0.474707	0.587646	0.684863
281	C	0.425873	0.563598	0.996098
282	C	0.406291	0.513066	0.977255
283	C	0.43701	0.488697	0.98032
284	H	0.488344	0.623411	0.699566
285	H	0.423194	0.452279	0.966706
286	H	0.505937	0.475248	0.739777
287	N	0.554782	0.58815	0.709015
288	N	0.535588	0.496202	0.923494
289	H	0.552368	0.490641	0.897809
290	H	0.51856	0.516629	0.918504
291	N	0.35931	0.487532	0.956021
292	H	0.346574	0.45303	0.94304
293	H	0.337097	0.502933	0.952763
294	N	0.559158	0.426471	0.758583
295	O	0.550815	0.596727	0.749423
296	O	0.582696	0.464207	0.785004
297	O	0.585901	0.6307	0.690459
298	O	0.516356	0.393796	0.775897
299	N	0.602592	0.411923	0.681802
300	N	0.396668	0.586281	0.99465
301	C	0.564964	0.138927	0.678248
302	C	0.555614	0.10783	0.71663
303	C	0.529931	0.052874	0.7119
304	C	0.512175	0.028465	0.669967
305	C	0.52049	0.059753	0.964721
306	C	0.547121	0.114749	0.969688
307	H	0.552749	0.137818	0.942387
308	C	0.485861	0.972893	0.001535
309	C	0.435847	0.941931	0.687648
310	C	0.411456	0.886885	0.684846
311	C	0.435504	0.862094	0.996092
312	C	0.48604	0.893041	0.977249
313	C	0.510413	0.948125	0.980317
314	H	0.375693	0.864762	0.699549
315	H	0.546834	0.970726	0.966706
316	H	0.523877	0.030504	0.739767
317	N	0.410965	0.966463	0.708999
318	N	0.502889	0.03921	0.923494
319	H	0.50851	0.061554	0.897799
320	H	0.482539	0.001754	0.918481
321	N	0.511571	0.871586	0.956024
322	H	0.546072	0.893346	0.943047
323	H	0.496165	0.833971	0.952766
324	N	0.57265	0.1325	0.758583
325	O	0.402383	0.953917	0.749406
326	O	0.534912	0.118295	0.785004
327	O	0.368419	0.95504	0.690442
328	O	0.605329	0.122377	0.775891
329	N	0.587181	0.190486	0.681808
330	N	0.412812	0.810205	0.994646
331	C	0.860169	0.425842	0.678271
332	C	0.891268	0.447586	0.71665
333	C	0.946226	0.476867	0.711913
334	C	0.970626	0.483527	0.669977
335	C	0.939332	0.460566	0.964731
336	C	0.884333	0.432213	0.969701
337	H	0.861262	0.414778	0.942404
338	C	0.026197	0.51278	0.001537
339	C	0.057165	0.493734	0.687648
340	C	0.112209	0.524384	0.684833
341	C	0.136998	0.573211	0.996055
342	C	0.106047	0.592804	0.977232
343	C	0.05096	0.562096	0.980313
344	H	0.134335	0.510747	0.699536
345	H	0.028361	0.575921	0.966706
346	H	0.968602	0.493175	0.73978
347	N	0.032639	0.444325	0.709005
348	N	0.959868	0.463535	0.923497
349	H	0.937521	0.446757	0.897813
350	H	0.997321	0.480559	0.918501
351	N	0.127497	0.639785	0.955997
352	H	0.105731	0.652504	0.942987
353	H	0.165108	0.66196	0.95268
354	N	0.866609	0.43994	0.75861
355	O	0.045196	0.448294	0.74941
356	O	0.880822	0.416405	0.785017
357	O	0.044052	0.413194	0.690449
358	O	0.876725	0.482737	0.775927
359	N	0.808607	0.396518	0.681838
360	N	0.188887	0.602421	0.99462
