data_C180H180N72_2018-02-15_10:33:55
#******************************************
#
# CIF file created by Zeo++
# Zeo++ is an open source package to
# analyze microporous materials
#
#*******************************************

_cell_length_a		33.3238   
_cell_length_b		32.9608   
_cell_length_c		30.0002   
_cell_angle_alpha		90   
_cell_angle_beta		90   
_cell_angle_gamma		120.079   

_symmetry_space_group_name_H-M		'P1'
_symmetry_Int_Tables_number		1
_symmetry_cell_setting		Monoclinic

loop_
_symmetry_equiv_pos_as_xyz
'+x,+y,+z'

loop_
_atom_site_label
_atom_site_type_symbol
_atom_site_fract_x
_atom_site_fract_y
_atom_site_fract_z
1	N	0.025391	0.047159	0.060283
2	C	0.041583	0.016648	0.060753
3	N	0.010468	0.969893	0.061598
4	N	0.089912	0.033985	0.062797
5	N	0.025391	0.047159	0.393617
6	C	0.041583	0.016648	0.394087
7	N	0.010468	0.969893	0.39493
8	N	0.089912	0.033985	0.39613
9	N	0.025391	0.047159	0.726948
10	C	0.041583	0.016648	0.727421
11	N	0.010468	0.969893	0.728265
12	N	0.089912	0.033985	0.729465
13	H	0.095805	0.006488	0.067324
14	H	0.98893	0.096879	0.064123
15	H	0.095805	0.006488	0.400657
16	H	0.98893	0.096879	0.397457
17	H	0.095805	0.006488	0.733991
18	H	0.98893	0.096879	0.730791
19	C	0.979147	0.031768	0.059523
20	C	0.96406	0.953446	0.060886
21	N	0.948942	0.984846	0.060425
22	N	0.9328	0.904589	0.062978
23	H	0.89958	0.898577	0.066634
24	N	0.961862	0.06316	0.060357
25	C	0.387845	0.19893	0.991123
26	N	0.424573	0.192127	0.996313
27	C	0.468531	0.227027	0.987666
28	N	0.475529	0.269287	0.97343
29	C	0.439404	0.276936	0.967816
30	N	0.395802	0.241231	0.976293
31	N	0.505462	0.217929	0.992343
32	H	0.536379	0.249047	0.993986
33	N	0.446885	0.320715	0.952173
34	H	0.415386	0.317956	0.945263
35	N	0.341623	0.162826	0.998223
36	H	0.340562	0.131642	0.004475
37	C	0.788705	0.188329	0.98946
38	N	0.795057	0.232155	0.994403
39	C	0.759944	0.240975	0.986806
40	N	0.717872	0.205132	0.97391
41	C	0.710615	0.161013	0.96861
42	N	0.746541	0.15338	0.97598
43	N	0.768589	0.287323	0.991289
44	H	0.737701	0.287142	0.993243
45	N	0.666995	0.124137	0.95426
46	H	0.669625	0.094872	0.948076
47	N	0.825157	0.178646	0.995319
48	H	0.855884	0.20923	0.000762
49	C	0.799548	0.603497	0.992403
50	N	0.756077	0.56614	0.997153
51	C	0.746977	0.521862	0.988443
52	N	0.782091	0.515176	0.974513
53	C	0.825815	0.55194	0.969356
54	N	0.833784	0.595861	0.977926
55	N	0.701013	0.484326	0.992576
56	H	0.701023	0.45322	0.994959
57	N	0.861993	0.544809	0.954033
58	H	0.890886	0.576816	0.94775
59	N	0.809733	0.650078	0.999516
60	H	0.779746	0.650895	0.005312
61	C	0.240155	0.112329	0.067765
62	C	0.191462	0.085619	0.065281
63	C	0.16754	0.086288	0.359851
64	C	0.194089	0.114337	0.323587
65	C	0.24268	0.141565	0.326273
66	C	0.266408	0.140982	0.031757
67	H	0.178023	0.116129	0.295181
68	H	0.173783	0.066395	0.092547
69	H	0.256199	0.111725	0.096628
70	H	0.260638	0.162468	0.299856
71	C	0.11597	0.060612	0.355904
72	H	0.106006	0.036529	0.327555
73	H	0.106098	0.086889	0.348127
74	C	0.317469	0.172278	0.034972
75	H	0.330889	0.16848	0.067077
76	H	0.324048	0.208271	0.033169
77	C	0.879473	0.131182	0.064849
78	C	0.907682	0.110694	0.062373
79	C	0.907974	0.086136	0.357084
80	C	0.87941	0.083222	0.32091
81	C	0.850713	0.103082	0.323594
82	C	0.850268	0.12727	0.028978
83	H	0.87829	0.065314	0.292619
84	H	0.927273	0.113239	0.089559
85	H	0.879426	0.147812	0.093627
86	H	0.829492	0.099083	0.297273
87	C	0.935018	0.061416	0.353337
88	H	0.958739	0.076008	0.324971
89	H	0.909977	0.024752	0.345681
90	C	0.817563	0.145433	0.032225
91	H	0.820777	0.162764	0.06425
92	H	0.782532	0.114993	0.030635
93	C	0.860187	0.752756	0.068686
94	C	0.882471	0.801964	0.065948
95	C	0.907764	0.826022	0.360741
96	C	0.909676	0.799085	0.324964
97	C	0.887992	0.749987	0.327911
98	C	0.862965	0.726124	0.033169
99	H	0.928033	0.815245	0.296743
100	H	0.880604	0.819922	0.092871
101	H	0.842988	0.736621	0.097377
102	H	0.891196	0.731759	0.301858
103	C	0.933963	0.878133	0.356581
104	H	0.920635	0.887985	0.327672
105	H	0.97003	0.888206	0.349621
106	C	0.842727	0.674526	0.036653
107	H	0.825027	0.661038	0.068568
108	H	0.871765	0.667882	0.035531
109	C	0.579084	0.184644	0.268736
110	C	0.608244	0.165815	0.275895
111	C	0.600884	0.135562	0.979003
112	C	0.563689	0.125266	0.008278
113	C	0.534371	0.14387	0.001033
114	C	0.541415	0.173484	0.297583
115	H	0.556798	0.102885	0.034542
116	H	0.633938	0.173309	0.253242
117	H	0.58465	0.205316	0.241355
118	H	0.506941	0.134518	0.022098
119	C	0.627945	0.111262	0.985976
120	H	0.603257	0.073719	0.98231
121	H	0.640489	0.116644	0.020436
122	C	0.507791	0.189576	0.288284
123	H	0.473924	0.158153	0.283137
124	H	0.516642	0.210093	0.257442
125	C	0.80109	0.395206	0.268075
126	C	0.820118	0.4436	0.275347
127	C	0.850656	0.466322	0.978096
128	C	0.861067	0.43886	0.006899
129	C	0.842273	0.390543	0.999533
130	C	0.812348	0.368132	0.296437
131	H	0.88366	0.454216	0.032869
132	H	0.812549	0.462206	0.253005
133	H	0.780205	0.380224	0.240933
134	H	0.8517	0.372045	0.020218
135	C	0.875126	0.518044	0.985083
136	H	0.912127	0.530473	0.98062
137	H	0.87061	0.525424	0.019759
138	C	0.796057	0.31798	0.286929
139	H	0.826972	0.315117	0.281064
140	H	0.77521	0.306406	0.256415
141	C	0.595156	0.409121	0.268096
142	C	0.547191	0.379825	0.274776
143	C	0.524188	0.38792	0.977043
144	C	0.550925	0.425989	0.005978
145	C	0.598817	0.455436	0.999206
146	C	0.621519	0.447653	0.296585
147	H	0.535356	0.433429	0.031607
148	H	0.529118	0.353501	0.252359
149	H	0.610374	0.403014	0.241289
150	H	0.616807	0.483506	0.019971
151	C	0.472936	0.360801	0.98336
152	H	0.460709	0.385757	0.978503
153	H	0.465157	0.34882	0.018006
154	C	0.671276	0.48143	0.287703
155	H	0.674275	0.515596	0.28163
156	H	0.683153	0.47195	0.257476
157	C	0.979147	0.031768	0.392857
158	C	0.96406	0.953446	0.39422
159	N	0.948942	0.984846	0.393757
160	N	0.9328	0.904589	0.39631
161	H	0.89958	0.898577	0.399967
162	N	0.961862	0.06316	0.39369
163	C	0.387845	0.19893	0.324457
164	N	0.424573	0.192127	0.329645
165	C	0.468531	0.227027	0.321001
166	N	0.475529	0.269287	0.306764
167	C	0.439404	0.276936	0.30115
168	N	0.395802	0.241231	0.309627
169	N	0.505462	0.217929	0.325675
170	H	0.536379	0.249047	0.327318
171	N	0.446885	0.320715	0.285507
172	H	0.415386	0.317956	0.278597
173	N	0.341623	0.162826	0.331555
174	H	0.340562	0.131642	0.337808
175	C	0.788705	0.188329	0.322794
176	N	0.795057	0.232155	0.327736
177	C	0.759944	0.240975	0.320139
178	N	0.717872	0.205132	0.307244
179	C	0.710615	0.161013	0.301943
180	N	0.746541	0.15338	0.309313
181	N	0.768589	0.287323	0.324622
182	H	0.737701	0.287142	0.326577
183	N	0.666995	0.124137	0.287594
184	H	0.669625	0.094872	0.281408
185	N	0.825157	0.178646	0.328653
186	H	0.855884	0.20923	0.334094
187	C	0.799548	0.603497	0.325736
188	N	0.756077	0.56614	0.330487
189	C	0.746977	0.521862	0.321777
190	N	0.782091	0.515176	0.307846
191	C	0.825815	0.55194	0.302691
192	N	0.833784	0.595861	0.311258
193	N	0.701013	0.484326	0.32591
194	H	0.701023	0.45322	0.328291
195	N	0.861993	0.544809	0.287366
196	H	0.890886	0.576816	0.281084
197	N	0.809733	0.650078	0.33285
198	H	0.779746	0.650895	0.338644
199	C	0.240155	0.112329	0.401097
200	C	0.191462	0.085619	0.398614
201	C	0.16754	0.086288	0.693182
202	C	0.194089	0.114337	0.656922
203	C	0.24268	0.141565	0.659605
204	C	0.266408	0.140982	0.365091
205	H	0.178023	0.116129	0.628515
206	H	0.173783	0.066395	0.42588
207	H	0.256199	0.111725	0.42996
208	H	0.260638	0.162468	0.633189
209	C	0.11597	0.060612	0.689238
210	H	0.106006	0.036529	0.660889
211	H	0.106098	0.086889	0.681462
212	C	0.317469	0.172278	0.368307
213	H	0.330889	0.16848	0.40041
214	H	0.324048	0.208271	0.366504
215	C	0.879473	0.131182	0.398184
216	C	0.907682	0.110694	0.395707
217	C	0.907974	0.086136	0.690415
218	C	0.87941	0.083222	0.654242
219	C	0.850713	0.103082	0.656929
220	C	0.850268	0.12727	0.362311
221	H	0.87829	0.065314	0.625952
222	H	0.927273	0.113239	0.422894
223	H	0.879426	0.147812	0.42696
224	H	0.829492	0.099083	0.630605
225	C	0.935018	0.061416	0.686672
226	H	0.958739	0.076008	0.658305
227	H	0.909977	0.024752	0.679015
228	C	0.817563	0.145433	0.365557
229	H	0.820777	0.162764	0.397584
230	H	0.782532	0.114993	0.363967
231	C	0.860187	0.752756	0.40202
232	C	0.882471	0.801964	0.39928
233	C	0.907764	0.826022	0.694075
234	C	0.909676	0.799085	0.658299
235	C	0.887992	0.749987	0.661245
236	C	0.862965	0.726124	0.366504
237	H	0.928033	0.815245	0.630075
238	H	0.880604	0.819922	0.426204
239	H	0.842988	0.736621	0.43071
240	H	0.891196	0.731759	0.635192
241	C	0.933963	0.878133	0.689915
242	H	0.920635	0.887985	0.661005
243	H	0.97003	0.888206	0.682955
244	C	0.842727	0.674526	0.369987
245	H	0.825027	0.661038	0.4019
246	H	0.871765	0.667882	0.368864
247	C	0.579084	0.184644	0.602069
248	C	0.608244	0.165815	0.609229
249	C	0.600884	0.135562	0.312336
250	C	0.563689	0.125266	0.341611
251	C	0.534371	0.14387	0.334368
252	C	0.541415	0.173484	0.630915
253	H	0.556798	0.102885	0.367874
254	H	0.633938	0.173309	0.586576
255	H	0.58465	0.205316	0.574689
256	H	0.506941	0.134518	0.355431
257	C	0.627945	0.111262	0.319308
258	H	0.603257	0.073719	0.315641
259	H	0.640489	0.116644	0.353771
260	C	0.507791	0.189576	0.621619
261	H	0.473924	0.158153	0.616469
262	H	0.516642	0.210093	0.590776
263	C	0.80109	0.395206	0.601409
264	C	0.820118	0.4436	0.608679
265	C	0.850656	0.466322	0.31143
266	C	0.861067	0.43886	0.340231
267	C	0.842273	0.390543	0.332867
268	C	0.812348	0.368132	0.629772
269	H	0.88366	0.454216	0.366204
270	H	0.812549	0.462206	0.586339
271	H	0.780205	0.380224	0.574266
272	H	0.8517	0.372045	0.353551
273	C	0.875126	0.518044	0.318415
274	H	0.912127	0.530473	0.313951
275	H	0.87061	0.525424	0.353094
276	C	0.796057	0.31798	0.620262
277	H	0.826972	0.315117	0.614399
278	H	0.77521	0.306406	0.589749
279	C	0.595156	0.409121	0.601429
280	C	0.547191	0.379825	0.608109
281	C	0.524188	0.38792	0.310374
282	C	0.550925	0.425989	0.339311
283	C	0.598817	0.455436	0.332539
284	C	0.621519	0.447653	0.629919
285	H	0.535356	0.433429	0.364941
286	H	0.529118	0.353501	0.585692
287	H	0.610374	0.403014	0.574623
288	H	0.616807	0.483506	0.353304
289	C	0.472936	0.360801	0.316693
290	H	0.460709	0.385757	0.311837
291	H	0.465157	0.34882	0.351341
292	C	0.671276	0.48143	0.621036
293	H	0.674275	0.515596	0.614966
294	H	0.683153	0.47195	0.590809
295	C	0.979147	0.031768	0.726188
296	C	0.96406	0.953446	0.727555
297	N	0.948942	0.984846	0.727091
298	N	0.9328	0.904589	0.729645
299	H	0.89958	0.898577	0.733301
300	N	0.961862	0.06316	0.727025
301	C	0.387845	0.19893	0.657792
302	N	0.424573	0.192127	0.662979
303	C	0.468531	0.227027	0.654335
304	N	0.475529	0.269287	0.640099
305	C	0.439404	0.276936	0.634485
306	N	0.395802	0.241231	0.642959
307	N	0.505462	0.217929	0.659009
308	H	0.536379	0.249047	0.660652
309	N	0.446885	0.320715	0.618839
310	H	0.415386	0.317956	0.611932
311	N	0.341623	0.162826	0.664889
312	H	0.340562	0.131642	0.671142
313	C	0.788705	0.188329	0.656129
314	N	0.795057	0.232155	0.661069
315	C	0.759944	0.240975	0.653472
316	N	0.717872	0.205132	0.640579
317	C	0.710615	0.161013	0.635275
318	N	0.746541	0.15338	0.642645
319	N	0.768589	0.287323	0.657955
320	H	0.737701	0.287142	0.659912
321	N	0.666995	0.124137	0.620926
322	H	0.669625	0.094872	0.614742
323	N	0.825157	0.178646	0.661985
324	H	0.855884	0.20923	0.667429
325	C	0.799548	0.603497	0.659069
326	N	0.756077	0.56614	0.663819
327	C	0.746977	0.521862	0.655112
328	N	0.782091	0.515176	0.641179
329	C	0.825815	0.55194	0.636025
330	N	0.833784	0.595861	0.644592
331	N	0.701013	0.484326	0.659242
332	H	0.701023	0.45322	0.661625
333	N	0.861993	0.544809	0.620699
334	H	0.890886	0.576816	0.614419
335	N	0.809733	0.650078	0.666185
336	H	0.779746	0.650895	0.671978
337	C	0.240155	0.112329	0.734431
338	C	0.191462	0.085619	0.731948
339	C	0.16754	0.086288	0.026516
340	C	0.194089	0.114337	0.990253
341	C	0.24268	0.141565	0.992939
342	C	0.266408	0.140982	0.698425
343	H	0.178023	0.116129	0.961846
344	H	0.173783	0.066395	0.759215
345	H	0.256199	0.111725	0.763294
346	H	0.260638	0.162468	0.966523
347	C	0.11597	0.060612	0.022572
348	H	0.106006	0.036529	0.994223
349	H	0.106098	0.086889	0.014795
350	C	0.317469	0.172278	0.701638
351	H	0.330889	0.16848	0.733745
352	H	0.324048	0.208271	0.699835
353	C	0.879473	0.131182	0.731515
354	C	0.907682	0.110694	0.729038
355	C	0.907974	0.086136	0.023749
356	C	0.87941	0.083222	0.987576
357	C	0.850713	0.103082	0.99026
358	C	0.850268	0.12727	0.695645
359	H	0.87829	0.065314	0.959286
360	H	0.927273	0.113239	0.756225
361	H	0.879426	0.147812	0.760295
362	H	0.829492	0.099083	0.96394
363	C	0.935018	0.061416	0.020004
364	H	0.958739	0.076008	0.991636
365	H	0.909977	0.024752	0.012348
366	C	0.817563	0.145433	0.698892
367	H	0.820777	0.162764	0.730918
368	H	0.782532	0.114993	0.697302
369	C	0.860187	0.752756	0.735351
370	C	0.882471	0.801964	0.732615
371	C	0.907764	0.826022	0.027407
372	C	0.909676	0.799085	0.991629
373	C	0.887992	0.749987	0.994579
374	C	0.862965	0.726124	0.699835
375	H	0.928033	0.815245	0.96341
376	H	0.880604	0.819922	0.759538
377	H	0.842988	0.736621	0.764044
378	H	0.891196	0.731759	0.968526
379	C	0.933963	0.878133	0.023249
380	H	0.920635	0.887985	0.994339
381	H	0.97003	0.888206	0.016288
382	C	0.842727	0.674526	0.703322
383	H	0.825027	0.661038	0.735235
384	H	0.871765	0.667882	0.702198
385	C	0.579084	0.184644	0.935403
386	C	0.608244	0.165815	0.942563
387	C	0.600884	0.135562	0.645669
388	C	0.563689	0.125266	0.674945
389	C	0.534371	0.14387	0.667699
390	C	0.541415	0.173484	0.96425
391	H	0.556798	0.102885	0.701208
392	H	0.633938	0.173309	0.91991
393	H	0.58465	0.205316	0.908023
394	H	0.506941	0.134518	0.688765
395	C	0.627945	0.111262	0.652642
396	H	0.603257	0.073719	0.648975
397	H	0.640489	0.116644	0.687102
398	C	0.507791	0.189576	0.95495
399	H	0.473924	0.158153	0.949803
400	H	0.516642	0.210093	0.92411
401	C	0.80109	0.395206	0.934743
402	C	0.820118	0.4436	0.942013
403	C	0.850656	0.466322	0.644765
404	C	0.861067	0.43886	0.673565
405	C	0.842273	0.390543	0.666199
406	C	0.812348	0.368132	0.963103
407	H	0.88366	0.454216	0.699535
408	H	0.812549	0.462206	0.91967
409	H	0.780205	0.380224	0.9076
410	H	0.8517	0.372045	0.686885
411	C	0.875126	0.518044	0.651749
412	H	0.912127	0.530473	0.647285
413	H	0.87061	0.525424	0.686425
414	C	0.796057	0.31798	0.953596
415	H	0.826972	0.315117	0.94773
416	H	0.77521	0.306406	0.923083
417	C	0.595156	0.409121	0.934763
418	C	0.547191	0.379825	0.941443
419	C	0.524188	0.38792	0.643709
420	C	0.550925	0.425989	0.672645
421	C	0.598817	0.455436	0.665872
422	C	0.621519	0.447653	0.963253
423	H	0.535356	0.433429	0.698275
424	H	0.529118	0.353501	0.919027
425	H	0.610374	0.403014	0.907957
426	H	0.616807	0.483506	0.686638
427	C	0.472936	0.360801	0.650025
428	H	0.460709	0.385757	0.645169
429	H	0.465157	0.34882	0.684672
430	C	0.671276	0.48143	0.95437
431	H	0.674275	0.515596	0.948296
432	H	0.683153	0.47195	0.924143
