data_C162H90N36_2018-02-15_10:45:42
#******************************************
#
# CIF file created by Zeo++
# Zeo++ is an open source package to
# analyze microporous materials
#
#*******************************************

_cell_length_a		29.1969   
_cell_length_b		29.197   
_cell_length_c		30.0002   
_cell_angle_alpha		90   
_cell_angle_beta		90   
_cell_angle_gamma		120   

_symmetry_space_group_name_H-M		'P1'
_symmetry_Int_Tables_number		1
_symmetry_cell_setting		Monoclinic

loop_
_symmetry_equiv_pos_as_xyz
'+x,+y,+z'

loop_
_atom_site_label
_atom_site_type_symbol
_atom_site_fract_x
_atom_site_fract_y
_atom_site_fract_z
1	C	0.370944	0.649227	0.964219
2	C	0.387704	0.703788	0.964032
3	C	0.350764	0.721711	0.964209
4	C	0.296203	0.683911	0.964016
5	C	0.278277	0.629045	0.964212
6	C	0.316081	0.612288	0.964032
7	H	0.269114	0.696511	0.963412
8	H	0.303478	0.572597	0.963426
9	H	0.427396	0.730879	0.963442
10	C	0.367099	0.775134	0.962939
11	C	0.224856	0.591964	0.962919
12	C	0.408029	0.632889	0.962952
13	H	0.44015	0.652865	0.944176
14	H	0.212722	0.559835	0.944156
15	H	0.347099	0.787267	0.944179
16	C	0.630911	0.353163	0.032543
17	C	0.611866	0.298105	0.032671
18	C	0.646827	0.277745	0.032545
19	C	0.701883	0.313759	0.032673
20	C	0.722248	0.369079	0.03252
21	C	0.686233	0.388121	0.032671
22	H	0.727584	0.299449	0.03366
23	H	0.700542	0.42813	0.033659
24	H	0.57186	0.272407	0.033675
25	C	0.628313	0.223825	0.034914
26	C	0.77617	0.404484	0.034897
27	C	0.595511	0.371686	0.034914
28	H	0.561681	0.350314	0.051341
29	H	0.788617	0.438318	0.051313
30	H	0.64969	0.211373	0.051339
31	C	0.576053	0.438507	0.347514
32	C	0.578246	0.466808	0.308767
33	N	0.550009	0.492092	0.306209
34	C	0.519232	0.492606	0.340007
35	C	0.516306	0.465776	0.047032
36	C	0.545194	0.438974	0.050337
37	H	0.544011	0.419916	0.079318
38	C	0.490293	0.519218	0.002035
39	C	0.46479	0.570291	0.290409
40	C	0.432232	0.571687	0.991289
41	C	0.428999	0.545328	0.031575
42	H	0.600466	0.468106	0.281942
43	N	0.492104	0.544537	0.296815
44	C	0.458165	0.519131	0.03767
45	C	0.455845	0.492756	0.077766
46	C	0.484764	0.466365	0.082441
47	H	0.432915	0.492317	0.103754
48	H	0.482226	0.447228	0.111716
49	H	0.405211	0.545289	0.056712
50	H	0.467493	0.587562	0.260189
51	N	0.402421	0.593965	0.986982
52	N	0.604684	0.414699	0.348764
53	C	0.561522	0.137541	0.347501
54	C	0.533182	0.111433	0.30877
55	N	0.507894	0.057912	0.306212
56	C	0.507387	0.026622	0.340007
57	C	0.534227	0.050523	0.047028
58	C	0.561038	0.106215	0.05033
59	H	0.580108	0.124091	0.079308
60	C	0.480763	0.971069	0.002037
61	C	0.429664	0.894491	0.290419
62	C	0.428232	0.860535	0.991309
63	C	0.454629	0.883663	0.031583
64	H	0.531892	0.132355	0.281942
65	N	0.455443	0.947562	0.296818
66	C	0.480844	0.939027	0.037673
67	C	0.507231	0.963081	0.077765
68	C	0.533646	0.018392	0.082433
69	H	0.507664	0.940589	0.103755
70	H	0.552771	0.034989	0.111713
71	H	0.454673	0.859914	0.056717
72	H	0.412417	0.879926	0.260192
73	N	0.406001	0.808449	0.986989
74	N	0.585309	0.189978	0.348757
75	C	0.862451	0.423981	0.347481
76	C	0.888556	0.421755	0.308743
77	N	0.942079	0.449977	0.306188
78	C	0.97337	0.480761	0.339984
79	C	0.949469	0.483704	0.047003
80	C	0.893775	0.454825	0.050305
81	H	0.875904	0.456012	0.079287
82	C	0.02892	0.509691	0.002011
83	C	0.105495	0.535172	0.29039
84	C	0.13945	0.567725	0.991269
85	C	0.116326	0.570976	0.031551
86	H	0.867633	0.399512	0.281927
87	N	0.052427	0.507868	0.296795
88	C	0.060963	0.54182	0.037644
89	C	0.03691	0.544154	0.077738
90	C	0.981601	0.515252	0.082408
91	H	0.059402	0.567084	0.103725
92	H	0.965003	0.517787	0.111685
93	H	0.140077	0.594772	0.056685
94	H	0.120063	0.532463	0.260171
95	N	0.191536	0.597552	0.986959
96	N	0.810012	0.395325	0.348737
97	C	0.370944	0.649227	0.297552
98	C	0.387704	0.703788	0.297364
99	C	0.350764	0.721711	0.297543
100	C	0.296203	0.683911	0.297348
101	C	0.278277	0.629045	0.297544
102	C	0.316081	0.612288	0.297364
103	H	0.269114	0.696511	0.296746
104	H	0.303478	0.572597	0.296756
105	H	0.427396	0.730879	0.296774
106	C	0.367099	0.775134	0.296272
107	C	0.224856	0.591964	0.29625
108	C	0.408029	0.632889	0.296284
109	H	0.44015	0.652865	0.277509
110	H	0.212722	0.559835	0.277487
111	H	0.347099	0.787267	0.277512
112	C	0.630911	0.353163	0.365877
113	C	0.611866	0.298105	0.366004
114	C	0.646827	0.277745	0.36588
115	C	0.701883	0.313759	0.366007
116	C	0.722248	0.369079	0.365854
117	C	0.686233	0.388121	0.366004
118	H	0.727584	0.299449	0.366994
119	H	0.700542	0.42813	0.366994
120	H	0.57186	0.272407	0.36701
121	C	0.628313	0.223825	0.368247
122	C	0.77617	0.404484	0.36823
123	C	0.595511	0.371686	0.368247
124	H	0.561681	0.350314	0.384674
125	H	0.788617	0.438318	0.384647
126	H	0.64969	0.211373	0.384674
127	C	0.576053	0.438507	0.680848
128	C	0.578246	0.466808	0.642101
129	N	0.550009	0.492092	0.639542
130	C	0.519232	0.492606	0.673341
131	C	0.516306	0.465776	0.380367
132	C	0.545194	0.438974	0.38367
133	H	0.544011	0.419916	0.412653
134	C	0.490293	0.519218	0.335367
135	C	0.46479	0.570291	0.623742
136	C	0.432232	0.571687	0.324621
137	C	0.428999	0.545328	0.36491
138	H	0.600466	0.468106	0.615275
139	N	0.492104	0.544537	0.630148
140	C	0.458165	0.519131	0.371004
141	C	0.455845	0.492756	0.4111
142	C	0.484764	0.466365	0.415773
143	H	0.432915	0.492317	0.437086
144	H	0.482226	0.447228	0.44505
145	H	0.405211	0.545289	0.390047
146	H	0.467493	0.587562	0.593522
147	N	0.402421	0.593965	0.320314
148	N	0.604684	0.414699	0.682098
149	C	0.561522	0.137541	0.680835
150	C	0.533182	0.111433	0.642105
151	N	0.507894	0.057912	0.639545
152	C	0.507387	0.026622	0.673341
153	C	0.534227	0.050523	0.38036
154	C	0.561038	0.106215	0.383664
155	H	0.580108	0.124091	0.412643
156	C	0.480763	0.971069	0.335371
157	C	0.429664	0.894491	0.623752
158	C	0.428232	0.860535	0.324642
159	C	0.454629	0.883663	0.364917
160	H	0.531892	0.132355	0.615275
161	N	0.455443	0.947562	0.630152
162	C	0.480844	0.939027	0.371007
163	C	0.507231	0.963081	0.4111
164	C	0.533646	0.018392	0.415767
165	H	0.507664	0.940589	0.43709
166	H	0.552771	0.034989	0.445046
167	H	0.454673	0.859914	0.39005
168	H	0.412417	0.879926	0.593525
169	N	0.406001	0.808449	0.320321
170	N	0.585309	0.189978	0.682091
171	C	0.862451	0.423981	0.680811
172	C	0.888556	0.421755	0.642078
173	N	0.942079	0.449977	0.639522
174	C	0.97337	0.480761	0.673318
175	C	0.949469	0.483704	0.380337
176	C	0.893775	0.454825	0.38364
177	H	0.875904	0.456012	0.41262
178	C	0.02892	0.509691	0.335344
179	C	0.105495	0.535172	0.623725
180	C	0.13945	0.567725	0.324602
181	C	0.116326	0.570976	0.364884
182	H	0.867633	0.399512	0.615262
183	N	0.052427	0.507868	0.630128
184	C	0.060963	0.54182	0.370977
185	C	0.03691	0.544154	0.41107
186	C	0.981601	0.515252	0.41574
187	H	0.059402	0.567084	0.43706
188	H	0.965003	0.517787	0.44502
189	H	0.140077	0.594772	0.39002
190	H	0.120063	0.532463	0.593505
191	N	0.191536	0.597552	0.320292
192	N	0.810012	0.395325	0.682071
193	C	0.370944	0.649227	0.630885
194	C	0.387704	0.703788	0.630698
195	C	0.350764	0.721711	0.630875
196	C	0.296203	0.683911	0.630682
197	C	0.278277	0.629045	0.630878
198	C	0.316081	0.612288	0.630698
199	H	0.269114	0.696511	0.630078
200	H	0.303478	0.572597	0.630092
201	H	0.427396	0.730879	0.630108
202	C	0.367099	0.775134	0.629605
203	C	0.224856	0.591964	0.629585
204	C	0.408029	0.632889	0.629618
205	H	0.44015	0.652865	0.610842
206	H	0.212722	0.559835	0.610822
207	H	0.347099	0.787267	0.610845
208	C	0.630911	0.353163	0.699211
209	C	0.611866	0.298105	0.699338
210	C	0.646827	0.277745	0.699214
211	C	0.701883	0.313759	0.699341
212	C	0.722248	0.369079	0.699188
213	C	0.686233	0.388121	0.699338
214	H	0.727584	0.299449	0.700328
215	H	0.700542	0.42813	0.700328
216	H	0.57186	0.272407	0.700341
217	C	0.628313	0.223825	0.701581
218	C	0.77617	0.404484	0.701564
219	C	0.595511	0.371686	0.701581
220	H	0.561681	0.350314	0.718008
221	H	0.788617	0.438318	0.717981
222	H	0.64969	0.211373	0.718008
223	C	0.576053	0.438507	0.01418
224	C	0.578246	0.466808	0.975435
225	N	0.550009	0.492092	0.972875
226	C	0.519232	0.492606	0.006674
227	C	0.516306	0.465776	0.713701
228	C	0.545194	0.438974	0.717004
229	H	0.544011	0.419916	0.745984
230	C	0.490293	0.519218	0.668701
231	C	0.46479	0.570291	0.957076
232	C	0.432232	0.571687	0.657955
233	C	0.428999	0.545328	0.698241
234	H	0.600466	0.468106	0.948609
235	N	0.492104	0.544537	0.963482
236	C	0.458165	0.519131	0.704338
237	C	0.455845	0.492756	0.744434
238	C	0.484764	0.466365	0.749107
239	H	0.432915	0.492317	0.77042
240	H	0.482226	0.447228	0.778384
241	H	0.405211	0.545289	0.723381
242	H	0.467493	0.587562	0.926856
243	N	0.402421	0.593965	0.653648
244	N	0.604684	0.414699	0.015431
245	C	0.561522	0.137541	0.014168
246	C	0.533182	0.111433	0.975439
247	N	0.507894	0.057912	0.972879
248	C	0.507387	0.026622	0.006673
249	C	0.534227	0.050523	0.713694
250	C	0.561038	0.106215	0.716998
251	H	0.580108	0.124091	0.745977
252	C	0.480763	0.971069	0.668705
253	C	0.429664	0.894491	0.957086
254	C	0.428232	0.860535	0.657975
255	C	0.454629	0.883663	0.698251
256	H	0.531892	0.132355	0.948609
257	N	0.455443	0.947562	0.963486
258	C	0.480844	0.939027	0.704341
259	C	0.507231	0.963081	0.744434
260	C	0.533646	0.018392	0.749101
261	H	0.507664	0.940589	0.770424
262	H	0.552771	0.034989	0.77838
263	H	0.454673	0.859914	0.723384
264	H	0.412417	0.879926	0.926859
265	N	0.406001	0.808449	0.653655
266	N	0.585309	0.189978	0.015424
267	C	0.862451	0.423981	0.014145
268	C	0.888556	0.421755	0.975409
269	N	0.942079	0.449977	0.972855
270	C	0.97337	0.480761	0.006649
271	C	0.949469	0.483704	0.713671
272	C	0.893775	0.454825	0.716974
273	H	0.875904	0.456012	0.745954
274	C	0.02892	0.509691	0.668678
275	C	0.105495	0.535172	0.957059
276	C	0.13945	0.567725	0.657935
277	C	0.116326	0.570976	0.698218
278	H	0.867633	0.399512	0.948596
279	N	0.052427	0.507868	0.963462
280	C	0.060963	0.54182	0.704311
281	C	0.03691	0.544154	0.744404
282	C	0.981601	0.515252	0.749074
283	H	0.059402	0.567084	0.770394
284	H	0.965003	0.517787	0.778354
285	H	0.140077	0.594772	0.723351
286	H	0.120063	0.532463	0.926839
287	N	0.191536	0.597552	0.653625
288	N	0.810012	0.395325	0.015405
