data_C288H144N216O72_2018-02-15_10:32:37
#******************************************
#
# CIF file created by Zeo++
# Zeo++ is an open source package to
# analyze microporous materials
#
#*******************************************

_cell_length_a		43.275   
_cell_length_b		43.275   
_cell_length_c		30.1398   
_cell_angle_alpha		90   
_cell_angle_beta		90   
_cell_angle_gamma		120   

_symmetry_space_group_name_H-M		'P1'
_symmetry_Int_Tables_number		1
_symmetry_cell_setting		Monoclinic

loop_
_symmetry_equiv_pos_as_xyz
'+x,+y,+z'

loop_
_atom_site_label
_atom_site_type_symbol
_atom_site_fract_x
_atom_site_fract_y
_atom_site_fract_z
1	C	0.127316	0.319508	0.287497
2	N	0.151913	0.354847	0.954458
3	C	0.187545	0.366878	0.954119
4	N	0.198295	0.342288	0.954441
5	C	0.174698	0.306653	0.954146
6	N	0.139357	0.295913	0.954491
7	C	0.212712	0.403333	0.959255
8	C	0.185982	0.281488	0.959332
9	C	0.090865	0.308208	0.959358
10	O	0.160086	0.246822	0.963502
11	O	0.082072	0.334093	0.963456
12	O	0.247388	0.412122	0.963346
13	C	0.365278	0.173892	0.374902
14	N	0.339171	0.139064	0.041201
15	C	0.303954	0.128915	0.041492
16	N	0.295235	0.155022	0.041198
17	C	0.320302	0.190234	0.041554
18	N	0.355131	0.198959	0.041258
19	C	0.277141	0.092971	0.036253
20	C	0.311185	0.21706	0.03635
21	C	0.401219	0.183	0.03636
22	O	0.338789	0.25106	0.036598
23	O	0.407585	0.155375	0.036487
24	O	0.243144	0.086584	0.036429
25	C	0.227003	0.216791	0.010058
26	N	0.213309	0.236456	0.993317
27	C	0.234208	0.270455	0.312069
28	N	0.270115	0.284653	0.314906
29	C	0.285425	0.266368	0.331352
30	C	0.264367	0.230904	0.013686
31	H	0.209451	0.191353	0.020125
32	H	0.312494	0.279073	0.330559
33	N	0.276867	0.209409	0.029202
34	H	0.258608	0.184597	0.034376
35	N	0.221077	0.291241	0.297103
36	H	0.23882	0.316056	0.290879
37	C	0.27744	0.009087	0.009868
38	N	0.257772	0.47572	0.993144
39	C	0.223758	0.462603	0.311951
40	N	0.209557	0.48431	0.314789
41	C	0.22785	0.017914	0.331199
42	C	0.263313	0.032322	0.013543
43	H	0.302884	0.016979	0.019916
44	H	0.215117	0.03225	0.330478
45	N	0.2848	0.066312	0.02908
46	H	0.309614	0.072872	0.034247
47	N	0.202964	0.428681	0.297002
48	H	0.178144	0.4216	0.290815
49	C	0.485126	0.267181	0.010028
50	N	0.018489	0.280877	0.9933
51	C	0.031602	0.259981	0.312085
52	N	0.009902	0.224074	0.314944
53	C	0.476304	0.208761	0.331378
54	C	0.461882	0.229816	0.013678
55	H	0.477233	0.28473	0.020071
56	H	0.461956	0.181692	0.330615
57	N	0.427888	0.217314	0.029197
58	H	0.42134	0.235576	0.034383
59	N	0.065525	0.273112	0.297138
60	H	0.072605	0.255373	0.290945
61	C	0.127316	0.319508	0.620829
62	N	0.151913	0.354847	0.287789
63	C	0.187545	0.366878	0.287452
64	N	0.198295	0.342288	0.287774
65	C	0.174698	0.306653	0.287477
66	N	0.139357	0.295913	0.287825
67	C	0.212712	0.403333	0.292587
68	C	0.185982	0.281488	0.292664
69	C	0.090865	0.308208	0.29269
70	O	0.160086	0.246822	0.296836
71	O	0.082072	0.334093	0.296787
72	O	0.247388	0.412122	0.296679
73	C	0.365278	0.173892	0.708235
74	N	0.339171	0.139064	0.374534
75	C	0.303954	0.128915	0.374826
76	N	0.295235	0.155022	0.374531
77	C	0.320302	0.190234	0.374889
78	N	0.355131	0.198959	0.374591
79	C	0.277141	0.092971	0.369587
80	C	0.311185	0.21706	0.369683
81	C	0.401219	0.183	0.369693
82	O	0.338789	0.25106	0.369932
83	O	0.407585	0.155375	0.36982
84	O	0.243144	0.086584	0.369763
85	C	0.227003	0.216791	0.343393
86	N	0.213309	0.236456	0.326649
87	C	0.234208	0.270455	0.645402
88	N	0.270115	0.284653	0.648238
89	C	0.285425	0.266368	0.664685
90	C	0.264367	0.230904	0.347019
91	H	0.209451	0.191353	0.353459
92	H	0.312494	0.279073	0.663892
93	N	0.276867	0.209409	0.362537
94	H	0.258608	0.184597	0.367709
95	N	0.221077	0.291241	0.630438
96	H	0.23882	0.316056	0.624214
97	C	0.27744	0.009087	0.3432
98	N	0.257772	0.47572	0.326476
99	C	0.223758	0.462603	0.645285
100	N	0.209557	0.48431	0.648122
101	C	0.22785	0.017914	0.664532
102	C	0.263313	0.032322	0.346876
103	H	0.302884	0.016979	0.35325
104	H	0.215117	0.03225	0.663812
105	N	0.2848	0.066312	0.362414
106	H	0.309614	0.072872	0.36758
107	N	0.202964	0.428681	0.630335
108	H	0.178144	0.4216	0.624151
109	C	0.485126	0.267181	0.343363
110	N	0.018489	0.280877	0.326631
111	C	0.031602	0.259981	0.645418
112	N	0.009902	0.224074	0.648278
113	C	0.476304	0.208761	0.664712
114	C	0.461882	0.229816	0.347012
115	H	0.477233	0.28473	0.353406
116	H	0.461956	0.181692	0.663948
117	N	0.427888	0.217314	0.36253
118	H	0.42134	0.235576	0.367716
119	N	0.065525	0.273112	0.630471
120	H	0.072605	0.255373	0.62428
121	C	0.127316	0.319508	0.954162
122	N	0.151913	0.354847	0.621121
123	C	0.187545	0.366878	0.620786
124	N	0.198295	0.342288	0.621108
125	C	0.174698	0.306653	0.62081
126	N	0.139357	0.295913	0.621158
127	C	0.212712	0.403333	0.625919
128	C	0.185982	0.281488	0.625999
129	C	0.090865	0.308208	0.626025
130	O	0.160086	0.246822	0.630169
131	O	0.082072	0.334093	0.63012
132	O	0.247388	0.412122	0.630013
133	C	0.365278	0.173892	0.041567
134	N	0.339171	0.139064	0.707867
135	C	0.303954	0.128915	0.708159
136	N	0.295235	0.155022	0.707867
137	C	0.320302	0.190234	0.708222
138	N	0.355131	0.198959	0.707927
139	C	0.277141	0.092971	0.70292
140	C	0.311185	0.21706	0.703016
141	C	0.401219	0.183	0.703026
142	O	0.338789	0.25106	0.703265
143	O	0.407585	0.155375	0.703152
144	O	0.243144	0.086584	0.703096
145	C	0.227003	0.216791	0.676726
146	N	0.213309	0.236456	0.659984
147	C	0.234208	0.270455	0.978738
148	N	0.270115	0.284653	0.981575
149	C	0.285425	0.266368	0.998019
150	C	0.264367	0.230904	0.680352
151	H	0.209451	0.191353	0.686792
152	H	0.312494	0.279073	0.997225
153	N	0.276867	0.209409	0.69587
154	H	0.258608	0.184597	0.701042
155	N	0.221077	0.291241	0.963771
156	H	0.23882	0.316056	0.957547
157	C	0.27744	0.009087	0.676536
158	N	0.257772	0.47572	0.659811
159	C	0.223758	0.462603	0.978618
160	N	0.209557	0.48431	0.981455
161	C	0.22785	0.017914	0.997866
162	C	0.263313	0.032322	0.680209
163	H	0.302884	0.016979	0.686583
164	H	0.215117	0.03225	0.997145
165	N	0.2848	0.066312	0.695747
166	H	0.309614	0.072872	0.700913
167	N	0.202964	0.428681	0.963668
168	H	0.178144	0.4216	0.957484
169	C	0.485126	0.267181	0.676696
170	N	0.018489	0.280877	0.659964
171	C	0.031602	0.259981	0.978751
172	N	0.009902	0.224074	0.981611
173	C	0.476304	0.208761	0.998045
174	C	0.461882	0.229816	0.680345
175	H	0.477233	0.28473	0.686739
176	H	0.461956	0.181692	0.997281
177	N	0.427888	0.217314	0.695863
178	H	0.42134	0.235576	0.701049
179	N	0.065525	0.273112	0.963804
180	H	0.072605	0.255373	0.957613
181	C	0.127316	0.819508	0.287497
182	N	0.151914	0.854849	0.954458
183	C	0.187544	0.866878	0.954119
184	N	0.198294	0.842287	0.954441
185	C	0.174698	0.806652	0.954146
186	N	0.139358	0.795915	0.954491
187	C	0.212712	0.903334	0.959255
188	C	0.185981	0.781487	0.959332
189	C	0.090866	0.80821	0.959358
190	O	0.160086	0.746823	0.963502
191	O	0.082072	0.834092	0.963456
192	O	0.247389	0.912124	0.963346
193	C	0.365279	0.673894	0.374902
194	N	0.33917	0.639065	0.041201
195	C	0.303953	0.628915	0.041492
196	N	0.295234	0.655021	0.041198
197	C	0.320302	0.690234	0.041554
198	N	0.355131	0.69896	0.041258
199	C	0.277141	0.59297	0.036253
200	C	0.311184	0.717059	0.03635
201	C	0.401219	0.683001	0.03636
202	O	0.338789	0.751061	0.036598
203	O	0.407585	0.655376	0.036487
204	O	0.243144	0.586585	0.036429
205	C	0.227003	0.716792	0.010058
206	N	0.21331	0.736457	0.993317
207	C	0.234207	0.770454	0.312069
208	N	0.270114	0.784652	0.314906
209	C	0.285425	0.766369	0.331352
210	C	0.264367	0.730904	0.013686
211	H	0.20945	0.691352	0.020125
212	H	0.312493	0.779072	0.330559
213	N	0.276867	0.709409	0.029202
214	H	0.258607	0.684596	0.034376
215	N	0.221077	0.791242	0.297103
216	H	0.238819	0.816055	0.290879
217	C	0.277441	0.509087	0.009868
218	N	0.257773	0.975722	0.993144
219	C	0.223759	0.962605	0.311951
220	N	0.209555	0.984309	0.314789
221	C	0.22785	0.517914	0.3312
222	C	0.263312	0.532323	0.013543
223	H	0.302885	0.51698	0.019916
224	H	0.215117	0.532251	0.330478
225	N	0.284799	0.566311	0.02908
226	H	0.309615	0.572873	0.034247
227	N	0.202963	0.92868	0.297002
228	H	0.178142	0.921599	0.290815
229	C	0.485126	0.76718	0.010028
230	N	0.018489	0.780876	0.9933
231	C	0.031602	0.759981	0.312085
232	N	0.009903	0.724074	0.314944
233	C	0.476303	0.70876	0.331378
234	C	0.461883	0.729816	0.013678
235	H	0.477233	0.784732	0.020071
236	H	0.461956	0.681693	0.330615
237	N	0.427887	0.717315	0.029197
238	H	0.421339	0.735577	0.034383
239	N	0.065524	0.773114	0.297138
240	H	0.072605	0.755373	0.290945
241	C	0.127316	0.819508	0.620829
242	N	0.151914	0.854849	0.287789
243	C	0.187544	0.866878	0.287452
244	N	0.198294	0.842287	0.287774
245	C	0.174698	0.806652	0.287477
246	N	0.139358	0.795915	0.287825
247	C	0.212712	0.903334	0.292587
248	C	0.185981	0.781487	0.292664
249	C	0.090866	0.80821	0.29269
250	O	0.160086	0.746823	0.296836
251	O	0.082072	0.834092	0.296787
252	O	0.247389	0.912124	0.296679
253	C	0.365279	0.673894	0.708235
254	N	0.33917	0.639065	0.374534
255	C	0.303953	0.628915	0.374826
256	N	0.295234	0.655021	0.374531
257	C	0.320302	0.690234	0.374889
258	N	0.355131	0.69896	0.374591
259	C	0.277141	0.59297	0.369587
260	C	0.311184	0.717059	0.369683
261	C	0.401219	0.683001	0.369693
262	O	0.338789	0.751061	0.369932
263	O	0.407585	0.655376	0.36982
264	O	0.243144	0.586585	0.369763
265	C	0.227003	0.716792	0.343393
266	N	0.21331	0.736457	0.326649
267	C	0.234207	0.770454	0.645405
268	N	0.270114	0.784652	0.648238
269	C	0.285425	0.766369	0.664685
270	C	0.264367	0.730904	0.347019
271	H	0.20945	0.691352	0.353459
272	H	0.312493	0.779072	0.663892
273	N	0.276867	0.709409	0.362537
274	H	0.258607	0.684596	0.367709
275	N	0.221077	0.791242	0.630438
276	H	0.238819	0.816055	0.624214
277	C	0.277441	0.509087	0.3432
278	N	0.257773	0.975722	0.326476
279	C	0.223759	0.962605	0.645285
280	N	0.209555	0.984309	0.648122
281	C	0.22785	0.517914	0.664532
282	C	0.263312	0.532323	0.346876
283	H	0.302885	0.51698	0.35325
284	H	0.215117	0.532251	0.663812
285	N	0.284799	0.566311	0.362414
286	H	0.309615	0.572873	0.36758
287	N	0.202963	0.92868	0.630335
288	H	0.178142	0.921599	0.624151
289	C	0.485126	0.76718	0.343363
290	N	0.018489	0.780876	0.326631
291	C	0.031602	0.759981	0.645418
292	N	0.009903	0.724074	0.648278
293	C	0.476303	0.70876	0.664712
294	C	0.461883	0.729816	0.347012
295	H	0.477233	0.784732	0.353406
296	H	0.461956	0.681693	0.663948
297	N	0.427887	0.717315	0.36253
298	H	0.421339	0.735577	0.367716
299	N	0.065524	0.773114	0.630471
300	H	0.072605	0.755373	0.62428
301	C	0.127316	0.819508	0.954162
302	N	0.151914	0.854849	0.621121
303	C	0.187544	0.866878	0.620786
304	N	0.198294	0.842287	0.621108
305	C	0.174698	0.806652	0.62081
306	N	0.139358	0.795915	0.621158
307	C	0.212712	0.903334	0.625919
308	C	0.185981	0.781487	0.625999
309	C	0.090866	0.80821	0.626025
310	O	0.160086	0.746823	0.630169
311	O	0.082072	0.834092	0.63012
312	O	0.247389	0.912124	0.630013
313	C	0.365279	0.673894	0.041567
314	N	0.33917	0.639065	0.707867
315	C	0.303953	0.628915	0.708159
316	N	0.295234	0.655021	0.707867
317	C	0.320302	0.690234	0.708222
318	N	0.355131	0.69896	0.707927
319	C	0.277141	0.59297	0.70292
320	C	0.311184	0.717059	0.703016
321	C	0.401219	0.683001	0.703026
322	O	0.338789	0.751061	0.703265
323	O	0.407585	0.655376	0.703152
324	O	0.243144	0.586585	0.703096
325	C	0.227003	0.716792	0.676726
326	N	0.21331	0.736457	0.659984
327	C	0.234207	0.770454	0.978738
328	N	0.270114	0.784652	0.981575
329	C	0.285425	0.766369	0.998019
330	C	0.264367	0.730904	0.680352
331	H	0.20945	0.691352	0.686792
332	H	0.312493	0.779072	0.997225
333	N	0.276867	0.709409	0.69587
334	H	0.258607	0.684596	0.701042
335	N	0.221077	0.791242	0.963771
336	H	0.238819	0.816055	0.957547
337	C	0.277441	0.509087	0.676536
338	N	0.257773	0.975722	0.659811
339	C	0.223759	0.962605	0.978618
340	N	0.209555	0.984309	0.981455
341	C	0.22785	0.517914	0.997866
342	C	0.263312	0.532323	0.680209
343	H	0.302885	0.51698	0.686583
344	H	0.215117	0.532251	0.997145
345	N	0.284799	0.566311	0.695747
346	H	0.309615	0.572873	0.700913
347	N	0.202963	0.92868	0.963668
348	H	0.178142	0.921599	0.957484
349	C	0.485126	0.76718	0.676696
350	N	0.018489	0.780876	0.659964
351	C	0.031602	0.759981	0.978751
352	N	0.009903	0.724074	0.981611
353	C	0.476303	0.70876	0.998045
354	C	0.461883	0.729816	0.680345
355	H	0.477233	0.784732	0.686739
356	H	0.461956	0.681693	0.997281
357	N	0.427887	0.717315	0.695863
358	H	0.421339	0.735577	0.701049
359	N	0.065524	0.773114	0.963804
360	H	0.072605	0.755373	0.957613
361	C	0.627317	0.319508	0.287497
362	N	0.651915	0.354847	0.954458
363	C	0.687546	0.366878	0.954119
364	N	0.698296	0.342288	0.954441
365	C	0.674699	0.306653	0.954146
366	N	0.639358	0.295913	0.954491
367	C	0.712712	0.403333	0.959255
368	C	0.685983	0.281488	0.959332
369	C	0.590864	0.308208	0.959358
370	O	0.660086	0.246822	0.963502
371	O	0.582071	0.334093	0.963456
372	O	0.74739	0.412122	0.963346
373	C	0.86528	0.173892	0.374902
374	N	0.839171	0.139064	0.041201
375	C	0.803954	0.128915	0.041492
376	N	0.795235	0.155022	0.041198
377	C	0.820302	0.190234	0.041554
378	N	0.855131	0.198959	0.041258
379	C	0.777143	0.092971	0.036253
380	C	0.811185	0.21706	0.03635
381	C	0.901219	0.183	0.03636
382	O	0.83879	0.25106	0.036598
383	O	0.907585	0.155375	0.036487
384	O	0.743144	0.086584	0.036429
385	C	0.727004	0.216791	0.010058
386	N	0.71331	0.236456	0.993317
387	C	0.734208	0.270455	0.312069
388	N	0.770116	0.284653	0.314906
389	C	0.785427	0.266368	0.331352
390	C	0.764367	0.230904	0.013686
391	H	0.709451	0.191353	0.020125
392	H	0.812493	0.279073	0.330559
393	N	0.776868	0.209409	0.029202
394	H	0.758609	0.184597	0.034376
395	N	0.721077	0.291241	0.297103
396	H	0.73882	0.316056	0.290879
397	C	0.777442	0.009087	0.009868
398	N	0.757772	0.47572	0.993144
399	C	0.723759	0.462603	0.311951
400	N	0.709556	0.48431	0.314789
401	C	0.72785	0.017914	0.331199
402	C	0.763313	0.032322	0.013543
403	H	0.802886	0.016979	0.019916
404	H	0.715118	0.03225	0.330478
405	N	0.7848	0.066312	0.02908
406	H	0.809614	0.072872	0.034247
407	N	0.702965	0.428681	0.297002
408	H	0.678144	0.4216	0.290815
409	C	0.985126	0.267181	0.010028
410	N	0.51849	0.280877	0.9933
411	C	0.531601	0.259981	0.312085
412	N	0.509902	0.224074	0.314944
413	C	0.976304	0.208761	0.331378
414	C	0.961884	0.229816	0.013678
415	H	0.977233	0.28473	0.020071
416	H	0.961956	0.181692	0.330615
417	N	0.927888	0.217314	0.029197
418	H	0.92134	0.235576	0.034383
419	N	0.565524	0.273112	0.297138
420	H	0.572606	0.255373	0.290945
421	C	0.627317	0.319508	0.620829
422	N	0.651915	0.354847	0.287789
423	C	0.687546	0.366878	0.287452
424	N	0.698296	0.342288	0.287774
425	C	0.674699	0.306653	0.287477
426	N	0.639358	0.295913	0.287825
427	C	0.712712	0.403333	0.292587
428	C	0.685983	0.281488	0.292664
429	C	0.590864	0.308208	0.29269
430	O	0.660086	0.246822	0.296836
431	O	0.582071	0.334093	0.296787
432	O	0.74739	0.412122	0.296679
433	C	0.86528	0.173892	0.708235
434	N	0.839171	0.139064	0.374534
435	C	0.803954	0.128915	0.374826
436	N	0.795235	0.155022	0.374531
437	C	0.820302	0.190234	0.374889
438	N	0.855131	0.198959	0.374591
439	C	0.777143	0.092971	0.369587
440	C	0.811185	0.21706	0.369683
441	C	0.901219	0.183	0.369693
442	O	0.83879	0.25106	0.369932
443	O	0.907585	0.155375	0.36982
444	O	0.743144	0.086584	0.369763
445	C	0.727004	0.216791	0.343393
446	N	0.71331	0.236456	0.326649
447	C	0.734208	0.270455	0.645402
448	N	0.770116	0.284653	0.648238
449	C	0.785427	0.266368	0.664685
450	C	0.764367	0.230904	0.347019
451	H	0.709451	0.191353	0.353459
452	H	0.812493	0.279073	0.663892
453	N	0.776868	0.209409	0.362537
454	H	0.758609	0.184597	0.367709
455	N	0.721077	0.291241	0.630438
456	H	0.73882	0.316056	0.624214
457	C	0.777442	0.009087	0.3432
458	N	0.757772	0.47572	0.326476
459	C	0.723759	0.462603	0.645285
460	N	0.709556	0.48431	0.648122
461	C	0.72785	0.017914	0.664532
462	C	0.763313	0.032322	0.346876
463	H	0.802886	0.016979	0.35325
464	H	0.715118	0.03225	0.663812
465	N	0.7848	0.066312	0.362414
466	H	0.809614	0.072872	0.36758
467	N	0.702965	0.428681	0.630335
468	H	0.678144	0.4216	0.624151
469	C	0.985126	0.267181	0.343363
470	N	0.51849	0.280877	0.326631
471	C	0.531601	0.259981	0.645418
472	N	0.509902	0.224074	0.648278
473	C	0.976304	0.208761	0.664712
474	C	0.961884	0.229816	0.347012
475	H	0.977233	0.28473	0.353406
476	H	0.961956	0.181692	0.663948
477	N	0.927888	0.217314	0.36253
478	H	0.92134	0.235576	0.367716
479	N	0.565524	0.273112	0.630471
480	H	0.572606	0.255373	0.62428
481	C	0.627317	0.319508	0.954162
482	N	0.651915	0.354847	0.621121
483	C	0.687546	0.366878	0.620786
484	N	0.698296	0.342288	0.621108
485	C	0.674699	0.306653	0.62081
486	N	0.639358	0.295913	0.621158
487	C	0.712712	0.403333	0.625919
488	C	0.685983	0.281488	0.625999
489	C	0.590864	0.308208	0.626025
490	O	0.660086	0.246822	0.630169
491	O	0.582071	0.334093	0.63012
492	O	0.74739	0.412122	0.630013
493	C	0.86528	0.173892	0.041567
494	N	0.839171	0.139064	0.707867
495	C	0.803954	0.128915	0.708159
496	N	0.795235	0.155022	0.707867
497	C	0.820302	0.190234	0.708222
498	N	0.855131	0.198959	0.707927
499	C	0.777143	0.092971	0.70292
500	C	0.811185	0.21706	0.703016
501	C	0.901219	0.183	0.703026
502	O	0.83879	0.25106	0.703265
503	O	0.907585	0.155375	0.703152
504	O	0.743144	0.086584	0.703096
505	C	0.727004	0.216791	0.676726
506	N	0.71331	0.236456	0.659984
507	C	0.734208	0.270455	0.978738
508	N	0.770116	0.284653	0.981575
509	C	0.785427	0.266368	0.998019
510	C	0.764367	0.230904	0.680352
511	H	0.709451	0.191353	0.686792
512	H	0.812493	0.279073	0.997225
513	N	0.776868	0.209409	0.69587
514	H	0.758609	0.184597	0.701042
515	N	0.721077	0.291241	0.963771
516	H	0.73882	0.316056	0.957547
517	C	0.777442	0.009087	0.676536
518	N	0.757772	0.47572	0.659811
519	C	0.723759	0.462603	0.978618
520	N	0.709556	0.48431	0.981455
521	C	0.72785	0.017914	0.997866
522	C	0.763313	0.032322	0.680209
523	H	0.802886	0.016979	0.686583
524	H	0.715118	0.03225	0.997145
525	N	0.7848	0.066312	0.695747
526	H	0.809614	0.072872	0.700913
527	N	0.702965	0.428681	0.963668
528	H	0.678144	0.4216	0.957484
529	C	0.985126	0.267181	0.676696
530	N	0.51849	0.280877	0.659964
531	C	0.531601	0.259981	0.978751
532	N	0.509902	0.224074	0.981611
533	C	0.976304	0.208761	0.998045
534	C	0.961884	0.229816	0.680345
535	H	0.977233	0.28473	0.686739
536	H	0.961956	0.181692	0.997281
537	N	0.927888	0.217314	0.695863
538	H	0.92134	0.235576	0.701049
539	N	0.565524	0.273112	0.963804
540	H	0.572606	0.255373	0.957613
541	C	0.627316	0.819508	0.287497
542	N	0.651914	0.854849	0.954458
543	C	0.687544	0.866878	0.954119
544	N	0.698294	0.842287	0.954441
545	C	0.674697	0.806652	0.954146
546	N	0.639358	0.795915	0.954491
547	C	0.712714	0.903334	0.959255
548	C	0.685981	0.781487	0.959332
549	C	0.590866	0.80821	0.959358
550	O	0.660088	0.746823	0.963502
551	O	0.582072	0.834092	0.963456
552	O	0.747389	0.912124	0.963346
553	C	0.86528	0.673894	0.374902
554	N	0.83917	0.639065	0.041201
555	C	0.803955	0.628915	0.041492
556	N	0.795236	0.655021	0.041198
557	C	0.820304	0.690234	0.041554
558	N	0.855132	0.69896	0.041258
559	C	0.777141	0.59297	0.036253
560	C	0.811186	0.717059	0.03635
561	C	0.901221	0.683001	0.03636
562	O	0.838789	0.751061	0.036598
563	O	0.907586	0.655376	0.036487
564	O	0.743146	0.586585	0.036429
565	C	0.727004	0.716792	0.010058
566	N	0.71331	0.736457	0.993317
567	C	0.734207	0.770454	0.312069
568	N	0.770114	0.784652	0.314906
569	C	0.785426	0.766369	0.331352
570	C	0.764368	0.730904	0.013686
571	H	0.70945	0.691352	0.020125
572	H	0.812494	0.779072	0.330559
573	N	0.776867	0.709409	0.029202
574	H	0.758608	0.684596	0.034376
575	N	0.721077	0.791242	0.297103
576	H	0.738819	0.816055	0.290879
577	C	0.777441	0.509087	0.009868
578	N	0.757774	0.975722	0.993144
579	C	0.723759	0.962605	0.311951
580	N	0.709556	0.984309	0.314789
581	C	0.727851	0.517914	0.3312
582	C	0.763312	0.532323	0.013543
583	H	0.802885	0.51698	0.019916
584	H	0.715117	0.532251	0.330478
585	N	0.784799	0.566311	0.02908
586	H	0.809616	0.572873	0.034247
587	N	0.702963	0.92868	0.297002
588	H	0.678143	0.921599	0.290815
589	C	0.985127	0.76718	0.010028
590	N	0.518489	0.780876	0.9933
591	C	0.531601	0.759981	0.312085
592	N	0.509902	0.724074	0.314944
593	C	0.976303	0.70876	0.331378
594	C	0.961883	0.729816	0.013678
595	H	0.977232	0.784732	0.020071
596	H	0.961956	0.681693	0.330615
597	N	0.927887	0.717315	0.029197
598	H	0.921339	0.735577	0.034383
599	N	0.565526	0.773114	0.297138
600	H	0.572605	0.755373	0.290945
601	C	0.627316	0.819508	0.620829
602	N	0.651914	0.854849	0.287789
603	C	0.687544	0.866878	0.287452
604	N	0.698294	0.842287	0.287774
605	C	0.674697	0.806652	0.287477
606	N	0.639358	0.795915	0.287825
607	C	0.712714	0.903334	0.292587
608	C	0.685981	0.781487	0.292664
609	C	0.590866	0.80821	0.29269
610	O	0.660088	0.746823	0.296836
611	O	0.582072	0.834092	0.296787
612	O	0.747389	0.912124	0.296679
613	C	0.86528	0.673894	0.708235
614	N	0.83917	0.639065	0.374534
615	C	0.803955	0.628915	0.374826
616	N	0.795236	0.655021	0.374531
617	C	0.820304	0.690234	0.374889
618	N	0.855132	0.69896	0.374591
619	C	0.777141	0.59297	0.369587
620	C	0.811186	0.717059	0.369683
621	C	0.901221	0.683001	0.369693
622	O	0.838789	0.751061	0.369932
623	O	0.907586	0.655376	0.36982
624	O	0.743146	0.586585	0.369763
625	C	0.727004	0.716792	0.343393
626	N	0.71331	0.736457	0.326649
627	C	0.734207	0.770454	0.645405
628	N	0.770114	0.784652	0.648238
629	C	0.785426	0.766369	0.664685
630	C	0.764368	0.730904	0.347019
631	H	0.70945	0.691352	0.353459
632	H	0.812494	0.779072	0.663892
633	N	0.776867	0.709409	0.362537
634	H	0.758608	0.684596	0.367709
635	N	0.721077	0.791242	0.630438
636	H	0.738819	0.816055	0.624214
637	C	0.777441	0.509087	0.3432
638	N	0.757774	0.975722	0.326476
639	C	0.723759	0.962605	0.645285
640	N	0.709556	0.984309	0.648122
641	C	0.727851	0.517914	0.664532
642	C	0.763312	0.532323	0.346876
643	H	0.802885	0.51698	0.35325
644	H	0.715117	0.532251	0.663812
645	N	0.784799	0.566311	0.362414
646	H	0.809616	0.572873	0.36758
647	N	0.702963	0.92868	0.630335
648	H	0.678143	0.921599	0.624151
649	C	0.985127	0.76718	0.343363
650	N	0.518489	0.780876	0.326631
651	C	0.531601	0.759981	0.645418
652	N	0.509902	0.724074	0.648278
653	C	0.976303	0.70876	0.664712
654	C	0.961883	0.729816	0.347012
655	H	0.977232	0.784732	0.353406
656	H	0.961956	0.681693	0.663948
657	N	0.927887	0.717315	0.36253
658	H	0.921339	0.735577	0.367716
659	N	0.565526	0.773114	0.630471
660	H	0.572605	0.755373	0.62428
661	C	0.627316	0.819508	0.954162
662	N	0.651914	0.854849	0.621121
663	C	0.687544	0.866878	0.620786
664	N	0.698294	0.842287	0.621108
665	C	0.674697	0.806652	0.62081
666	N	0.639358	0.795915	0.621158
667	C	0.712714	0.903334	0.625919
668	C	0.685981	0.781487	0.625999
669	C	0.590866	0.80821	0.626025
670	O	0.660088	0.746823	0.630169
671	O	0.582072	0.834092	0.63012
672	O	0.747389	0.912124	0.630013
673	C	0.86528	0.673894	0.041567
674	N	0.83917	0.639065	0.707867
675	C	0.803955	0.628915	0.708159
676	N	0.795236	0.655021	0.707867
677	C	0.820304	0.690234	0.708222
678	N	0.855132	0.69896	0.707927
679	C	0.777141	0.59297	0.70292
680	C	0.811186	0.717059	0.703016
681	C	0.901221	0.683001	0.703026
682	O	0.838789	0.751061	0.703265
683	O	0.907586	0.655376	0.703152
684	O	0.743146	0.586585	0.703096
685	C	0.727004	0.716792	0.676726
686	N	0.71331	0.736457	0.659984
687	C	0.734207	0.770454	0.978738
688	N	0.770114	0.784652	0.981575
689	C	0.785426	0.766369	0.998019
690	C	0.764368	0.730904	0.680352
691	H	0.70945	0.691352	0.686792
692	H	0.812494	0.779072	0.997225
693	N	0.776867	0.709409	0.69587
694	H	0.758608	0.684596	0.701042
695	N	0.721077	0.791242	0.963771
696	H	0.738819	0.816055	0.957547
697	C	0.777441	0.509087	0.676536
698	N	0.757774	0.975722	0.659811
699	C	0.723759	0.962605	0.978618
700	N	0.709556	0.984309	0.981455
701	C	0.727851	0.517914	0.997866
702	C	0.763312	0.532323	0.680209
703	H	0.802885	0.51698	0.686583
704	H	0.715117	0.532251	0.997145
705	N	0.784799	0.566311	0.695747
706	H	0.809616	0.572873	0.700913
707	N	0.702963	0.92868	0.963668
708	H	0.678143	0.921599	0.957484
709	C	0.985127	0.76718	0.676696
710	N	0.518489	0.780876	0.659964
711	C	0.531601	0.759981	0.978751
712	N	0.509902	0.724074	0.981611
713	C	0.976303	0.70876	0.998045
714	C	0.961883	0.729816	0.680345
715	H	0.977232	0.784732	0.686739
716	H	0.961956	0.681693	0.997281
717	N	0.927887	0.717315	0.695863
718	H	0.921339	0.735577	0.701049
719	N	0.565526	0.773114	0.963804
720	H	0.572605	0.755373	0.957613
