data_C144H126N36_2018-02-15_10:33:17
#******************************************
#
# CIF file created by Zeo++
# Zeo++ is an open source package to
# analyze microporous materials
#
#*******************************************

_cell_length_a		29.1001   
_cell_length_b		29.1001   
_cell_length_c		30.0294   
_cell_angle_alpha		90   
_cell_angle_beta		90   
_cell_angle_gamma		120   

_symmetry_space_group_name_H-M		'P1'
_symmetry_Int_Tables_number		1
_symmetry_cell_setting		Monoclinic

loop_
_symmetry_equiv_pos_as_xyz
'+x,+y,+z'

loop_
_atom_site_label
_atom_site_type_symbol
_atom_site_fract_x
_atom_site_fract_y
_atom_site_fract_z
1	C	0.369833	0.718951	0.96571
2	N	0.384711	0.681541	0.965914
3	C	0.348134	0.628944	0.965717
4	N	0.295847	0.614064	0.965907
5	C	0.279825	0.650642	0.965704
6	N	0.317233	0.702928	0.965897
7	C	0.363582	0.587768	0.299822
8	H	0.34035	0.557853	0.274659
9	H	0.352865	0.568821	0.999238
10	C	0.2232	0.63519	0.966453
11	H	0.216522	0.658395	0.274594
12	H	0.214962	0.645936	0.999188
13	C	0.411007	0.775575	0.96646
14	H	0.440889	0.782253	0.2746
15	H	0.429991	0.783813	0.999191
16	C	0.634801	0.278781	0.048317
17	N	0.612618	0.310216	0.048254
18	C	0.643008	0.363986	0.048321
19	N	0.696625	0.38617	0.048272
20	C	0.720005	0.355781	0.048339
21	N	0.68857	0.302163	0.048275
22	C	0.619592	0.398775	0.380311
23	H	0.641519	0.429503	0.355345
24	H	0.625544	0.418075	0.079397
25	C	0.778214	0.379203	0.047021
26	H	0.787027	0.357235	0.355435
27	H	0.791551	0.373307	0.079465
28	C	0.600017	0.220574	0.046993
29	H	0.56924	0.211761	0.355405
30	H	0.580779	0.207233	0.079435
31	C	0.54144	0.403572	0.024996
32	C	0.531926	0.410266	0.313484
33	C	0.512429	0.444241	0.302072
34	C	0.501041	0.471807	0.001886
35	C	0.510095	0.464101	0.046956
36	C	0.530298	0.430718	0.058393
37	H	0.501466	0.482274	0.072124
38	H	0.536541	0.425944	0.091166
39	C	0.481023	0.506205	0.323582
40	C	0.44231	0.492163	0.289722
41	C	0.422461	0.525855	0.27837
42	C	0.440244	0.574332	0.301074
43	C	0.479053	0.58899	0.001147
44	C	0.499215	0.55546	0.012187
45	H	0.427332	0.456668	0.273404
46	H	0.394539	0.514633	0.25381
47	H	0.49288	0.624274	0.017599
48	H	0.54031	0.391311	0.288817
49	H	0.527991	0.567888	0.036145
50	H	0.507551	0.44932	0.269041
51	N	0.42111	0.609291	0.291325
52	H	0.429759	0.621219	0.258704
53	N	0.562423	0.370189	0.034786
54	H	0.54	0.343721	0.059247
55	C	0.595205	0.137637	0.024947
56	C	0.588452	0.12143	0.313433
57	C	0.554474	0.067955	0.30203
58	C	0.526965	0.028999	0.001855
59	C	0.53473	0.045759	0.046925
60	C	0.568115	0.099347	0.058354
61	H	0.516596	0.018954	0.0721
62	H	0.572935	0.110362	0.091128
63	C	0.492562	0.97458	0.32356
64	C	0.506573	0.949914	0.289672
65	C	0.472877	0.89637	0.278331
66	C	0.42443	0.865669	0.301072
67	C	0.409801	0.889815	0.001172
68	C	0.443332	0.943506	0.012203
69	H	0.542046	0.970437	0.273326
70	H	0.484076	0.879672	0.253749
71	H	0.374537	0.868351	0.017651
72	H	0.607367	0.148772	0.288759
73	H	0.430926	0.95985	0.036184
74	H	0.549351	0.057998	0.269
75	N	0.38947	0.811577	0.291331
76	H	0.377507	0.808295	0.258719
77	N	0.628591	0.192004	0.03473
78	H	0.655106	0.196052	0.059151
79	C	0.86115	0.457323	0.02497
80	C	0.877352	0.466779	0.313454
81	C	0.930823	0.48627	0.302045
82	C	0.969783	0.497718	0.001866
83	C	0.953031	0.488722	0.046938
84	C	0.899445	0.468525	0.058373
85	H	0.979839	0.497396	0.072109
86	H	0.888435	0.462327	0.091148
87	C	0.024202	0.517736	0.323565
88	C	0.048861	0.556413	0.289677
89	C	0.102405	0.576265	0.27833
90	C	0.133109	0.558516	0.301067
91	C	0.108971	0.519744	0.001166
92	C	0.055277	0.499579	0.012202
93	H	0.028333	0.57136	0.273335
94	H	0.119098	0.60416	0.25375
95	H	0.130436	0.505943	0.017642
96	H	0.850004	0.458351	0.288784
97	H	0.038937	0.47083	0.036183
98	H	0.940777	0.491107	0.269014
99	N	0.187202	0.577654	0.291322
100	H	0.190483	0.568976	0.25871
101	N	0.806786	0.436348	0.034759
102	H	0.80274	0.458811	0.059181
103	C	0.369833	0.718951	0.299045
104	N	0.384711	0.681541	0.299245
105	C	0.348134	0.628944	0.299052
106	N	0.295847	0.614064	0.299242
107	C	0.279825	0.650642	0.299038
108	N	0.317233	0.702928	0.29923
109	C	0.363582	0.587768	0.633156
110	H	0.34035	0.557853	0.607991
111	H	0.352865	0.568821	0.332572
112	C	0.2232	0.63519	0.299785
113	H	0.216522	0.658395	0.607928
114	H	0.214962	0.645936	0.33252
115	C	0.411007	0.775575	0.299792
116	H	0.440889	0.782253	0.607934
117	H	0.429991	0.783813	0.332526
118	C	0.634801	0.278781	0.381649
119	N	0.612618	0.310216	0.381589
120	C	0.643008	0.363986	0.381653
121	N	0.696625	0.38617	0.381606
122	C	0.720005	0.355781	0.381673
123	N	0.68857	0.302163	0.381609
124	C	0.619592	0.398775	0.713644
125	H	0.641519	0.429503	0.688679
126	H	0.625544	0.418075	0.412729
127	C	0.778214	0.379203	0.380354
128	H	0.787027	0.357235	0.688768
129	H	0.791551	0.373307	0.412799
130	C	0.600017	0.220574	0.380327
131	H	0.56924	0.211761	0.688738
132	H	0.580779	0.207233	0.412769
133	C	0.54144	0.403572	0.358329
134	C	0.531926	0.410266	0.646816
135	C	0.512429	0.444241	0.635404
136	C	0.501041	0.471807	0.335218
137	C	0.510095	0.464101	0.380291
138	C	0.530298	0.430718	0.391726
139	H	0.501466	0.482274	0.405456
140	H	0.536541	0.425944	0.424497
141	C	0.481023	0.506205	0.656916
142	C	0.44231	0.492163	0.623056
143	C	0.422461	0.525855	0.611704
144	C	0.440244	0.574332	0.634408
145	C	0.479053	0.58899	0.334479
146	C	0.499215	0.55546	0.345521
147	H	0.427332	0.456668	0.606739
148	H	0.394539	0.514633	0.587141
149	H	0.49288	0.624274	0.350933
150	H	0.54031	0.391311	0.62215
151	H	0.527991	0.567888	0.369478
152	H	0.507551	0.44932	0.602376
153	N	0.42111	0.609291	0.624658
154	H	0.429759	0.621219	0.592037
155	N	0.562423	0.370189	0.368119
156	H	0.54	0.343721	0.392579
157	C	0.595205	0.137637	0.358282
158	C	0.588452	0.12143	0.646766
159	C	0.554474	0.067955	0.635364
160	C	0.526965	0.028999	0.335188
161	C	0.53473	0.045759	0.380257
162	C	0.568115	0.099347	0.391686
163	H	0.516596	0.018954	0.405433
164	H	0.572935	0.110362	0.424461
165	C	0.492562	0.97458	0.656893
166	C	0.506573	0.949914	0.623006
167	C	0.472877	0.89637	0.611664
168	C	0.42443	0.865669	0.634405
169	C	0.409801	0.889815	0.334506
170	C	0.443332	0.943506	0.345535
171	H	0.542046	0.970437	0.606659
172	H	0.484076	0.879672	0.587081
173	H	0.374537	0.868351	0.350983
174	H	0.607367	0.148772	0.622094
175	H	0.430926	0.95985	0.369518
176	H	0.549351	0.057998	0.602333
177	N	0.38947	0.811577	0.624665
178	H	0.377507	0.808295	0.592053
179	N	0.628591	0.192004	0.368063
180	H	0.655106	0.196052	0.392485
181	C	0.86115	0.457323	0.358302
182	C	0.877352	0.466779	0.646786
183	C	0.930823	0.48627	0.635377
184	C	0.969783	0.497718	0.335198
185	C	0.953031	0.488722	0.380271
186	C	0.899445	0.468525	0.391706
187	H	0.979839	0.497396	0.405443
188	H	0.888435	0.462327	0.424481
189	C	0.024202	0.517736	0.6569
190	C	0.048861	0.556413	0.62301
191	C	0.102405	0.576265	0.611664
192	C	0.133109	0.558516	0.634402
193	C	0.108971	0.519744	0.334499
194	C	0.055277	0.499579	0.345535
195	H	0.028333	0.57136	0.606669
196	H	0.119098	0.60416	0.587081
197	H	0.130436	0.505943	0.350976
198	H	0.850004	0.458351	0.622117
199	H	0.038937	0.47083	0.369518
200	H	0.940777	0.491107	0.602346
201	N	0.187202	0.577654	0.624655
202	H	0.190483	0.568976	0.592043
203	N	0.806786	0.436348	0.368093
204	H	0.80274	0.458811	0.392515
205	C	0.369833	0.718951	0.632377
206	N	0.384711	0.681541	0.63258
207	C	0.348134	0.628944	0.632384
208	N	0.295847	0.614064	0.632574
209	C	0.279825	0.650642	0.63237
210	N	0.317233	0.702928	0.632564
211	C	0.363582	0.587768	0.96649
212	H	0.34035	0.557853	0.941324
213	H	0.352865	0.568821	0.665904
214	C	0.2232	0.63519	0.63312
215	H	0.216522	0.658395	0.941261
216	H	0.214962	0.645936	0.665854
217	C	0.411007	0.775575	0.633126
218	H	0.440889	0.782253	0.941268
219	H	0.429991	0.783813	0.665858
220	C	0.634801	0.278781	0.714983
221	N	0.612618	0.310216	0.714919
222	C	0.643008	0.363986	0.714986
223	N	0.696625	0.38617	0.714939
224	C	0.720005	0.355781	0.715006
225	N	0.68857	0.302163	0.714943
226	C	0.619592	0.398775	0.046978
227	H	0.641519	0.429503	0.02201
228	H	0.625544	0.418075	0.746062
229	C	0.778214	0.379203	0.713687
230	H	0.787027	0.357235	0.022103
231	H	0.791551	0.373307	0.746132
232	C	0.600017	0.220574	0.713661
233	H	0.56924	0.211761	0.022072
234	H	0.580779	0.207233	0.746102
235	C	0.54144	0.403572	0.691662
236	C	0.531926	0.410266	0.98015
237	C	0.512429	0.444241	0.968737
238	C	0.501041	0.471807	0.668552
239	C	0.510095	0.464101	0.713621
240	C	0.530298	0.430718	0.72506
241	H	0.501466	0.482274	0.738789
242	H	0.536541	0.425944	0.757831
243	C	0.481023	0.506205	0.99025
244	C	0.44231	0.492163	0.95639
245	C	0.422461	0.525855	0.945037
246	C	0.440244	0.574332	0.967742
247	C	0.479053	0.58899	0.667812
248	C	0.499215	0.55546	0.678852
249	H	0.427332	0.456668	0.940072
250	H	0.394539	0.514633	0.920475
251	H	0.49288	0.624274	0.684266
252	H	0.54031	0.391311	0.955484
253	H	0.527991	0.567888	0.702811
254	H	0.507551	0.44932	0.935706
255	N	0.42111	0.609291	0.957991
256	H	0.429759	0.621219	0.92537
257	N	0.562423	0.370189	0.701453
258	H	0.54	0.343721	0.725912
259	C	0.595205	0.137637	0.691612
260	C	0.588452	0.12143	0.9801
261	C	0.554474	0.067955	0.968698
262	C	0.526965	0.028999	0.668522
263	C	0.53473	0.045759	0.713591
264	C	0.568115	0.099347	0.72502
265	H	0.516596	0.018954	0.738766
266	H	0.572935	0.110362	0.757794
267	C	0.492562	0.97458	0.990226
268	C	0.506573	0.949914	0.95634
269	C	0.472877	0.89637	0.944997
270	C	0.42443	0.865669	0.967738
271	C	0.409801	0.889815	0.667839
272	C	0.443332	0.943506	0.678868
273	H	0.542046	0.970437	0.939992
274	H	0.484076	0.879672	0.920415
275	H	0.374537	0.868351	0.684316
276	H	0.607367	0.148772	0.955427
277	H	0.430926	0.95985	0.702851
278	H	0.549351	0.057998	0.935667
279	N	0.38947	0.811577	0.957998
280	H	0.377507	0.808295	0.925387
281	N	0.628591	0.192004	0.701396
282	H	0.655106	0.196052	0.725819
283	C	0.86115	0.457323	0.691636
284	C	0.877352	0.466779	0.98012
285	C	0.930823	0.48627	0.968711
286	C	0.969783	0.497718	0.668532
287	C	0.953031	0.488722	0.713604
288	C	0.899445	0.468525	0.72504
289	H	0.979839	0.497396	0.738776
290	H	0.888435	0.462327	0.757814
291	C	0.024202	0.517736	0.990233
292	C	0.048861	0.556413	0.956343
293	C	0.102405	0.576265	0.944997
294	C	0.133109	0.558516	0.967735
295	C	0.108971	0.519744	0.667832
296	C	0.055277	0.499579	0.678868
297	H	0.028333	0.57136	0.940002
298	H	0.119098	0.60416	0.920415
299	H	0.130436	0.505943	0.684309
300	H	0.850004	0.458351	0.95545
301	H	0.038937	0.47083	0.702848
302	H	0.940777	0.491107	0.93568
303	N	0.187202	0.577654	0.957988
304	H	0.190483	0.568976	0.925377
305	N	0.806786	0.436348	0.701426
306	H	0.80274	0.458811	0.725845
