data_C180H90N48_2018-02-15_10:47:46
#******************************************
#
# CIF file created by Zeo++
# Zeo++ is an open source package to
# analyze microporous materials
#
#*******************************************

_cell_length_a		25.5825   
_cell_length_b		25.5823   
_cell_length_c		29.1844   
_cell_angle_alpha		90   
_cell_angle_beta		90   
_cell_angle_gamma		90.0372   

_symmetry_space_group_name_H-M		'P1'
_symmetry_Int_Tables_number		1
_symmetry_cell_setting		Monoclinic

loop_
_symmetry_equiv_pos_as_xyz
'+x,+y,+z'

loop_
_atom_site_label
_atom_site_type_symbol
_atom_site_fract_x
_atom_site_fract_y
_atom_site_fract_z
1	C	0.785905	0.019867	0.04008
2	C	0.731128	0.016397	0.035266
3	C	0.741847	0.993351	0.288521
4	C	0.796469	0.997342	0.293145
5	C	0.018308	0.240492	0.039877
6	C	0.015125	0.295287	0.035104
7	C	0.992789	0.284765	0.288177
8	C	0.996475	0.230127	0.292766
9	C	0.22887	0.027789	0.293686
10	C	0.28355	0.028468	0.288505
11	C	0.294032	0.008177	0.035803
12	C	0.239214	0.007743	0.041134
13	C	0.026568	0.797629	0.293607
14	C	0.006863	0.787415	0.041132
15	C	0.007054	0.732584	0.035832
16	C	0.026991	0.742947	0.288454
17	H	0.034459	0.727999	0.256534
18	H	0.03361	0.820634	0.265539
19	H	0.999425	0.709885	0.063935
20	H	0.999286	0.803008	0.07275
21	H	0.205821	0.034742	0.265637
22	H	0.298452	0.036081	0.256592
23	H	0.223672	0.999847	0.072716
24	H	0.316766	0.000457	0.063859
25	H	0.026913	0.224971	0.071321
26	H	0.021343	0.318101	0.06341
27	H	0.98906	0.207063	0.264816
28	H	0.982909	0.299739	0.256773
29	H	0.819593	0.989922	0.265241
30	H	0.726951	0.983168	0.257158
31	H	0.708257	0.022801	0.063498
32	H	0.801344	0.028953	0.071457
33	H	0.971437	0.384366	0.29552
34	H	0.384445	0.021591	0.286914
35	H	0.01963	0.642092	0.286928
36	H	0.642136	0.972234	0.29566
37	N	0.013906	0.484378	0.051433
38	C	0.012963	0.537293	0.056109
39	C	0.014554	0.568725	0.016208
40	N	0.017252	0.543098	0.308687
41	C	0.01783	0.490312	0.303877
42	C	0.022561	0.472233	0.262482
43	C	0.011134	0.556357	0.097389
44	N	0.009542	0.57317	0.133848
45	N	0.026647	0.456554	0.225787
46	N	0.014552	0.621043	0.018167
47	N	0.542099	0.0147	0.051464
48	C	0.48918	0.013814	0.056095
49	C	0.4578	0.015597	0.01617
50	N	0.483467	0.018385	0.308673
51	C	0.536262	0.018931	0.303913
52	C	0.55441	0.02368	0.262542
53	C	0.470064	0.01184	0.097353
54	N	0.4532	0.01012	0.133789
55	N	0.570142	0.027787	0.225863
56	N	0.40549	0.015621	0.018098
57	C	0.918091	0.876621	0.340401
58	C	0.879217	0.914011	0.34047
59	C	0.902687	0.963361	0.341282
60	N	0.954877	0.953819	0.342745
61	C	0.966437	0.902022	0.341763
62	C	0.015903	0.876399	0.341204
63	C	0.064899	0.902729	0.341638
64	N	0.074125	0.954824	0.342673
65	C	0.125835	0.966023	0.341787
66	C	0.151444	0.917841	0.340276
67	C	0.114018	0.878955	0.340518
68	C	0.150189	0.016028	0.341249
69	C	0.122639	0.064473	0.341514
70	N	0.070457	0.074054	0.342892
71	C	0.058916	0.125828	0.341101
72	C	0.107271	0.151183	0.339359
73	C	0.146142	0.113775	0.339918
74	C	0.009444	0.151419	0.340168
75	C	0.960429	0.125054	0.340826
76	N	0.951166	0.072963	0.341849
77	C	0.89944	0.061761	0.340987
78	C	0.873829	0.109918	0.339481
79	C	0.911266	0.148793	0.339794
80	C	0.875071	0.011777	0.340388
81	C	0.819313	0.010077	0.335789
82	C	0.708076	0.002572	0.326134
83	C	0.008648	0.207178	0.335488
84	C	0.00179	0.318441	0.325903
85	C	0.205928	0.017509	0.336766
86	C	0.317361	0.018557	0.326004
87	C	0.016564	0.820641	0.336705
88	C	0.017145	0.709189	0.326011
89	H	0.911342	0.837247	0.339151
90	H	0.840127	0.905704	0.339483
91	H	0.980947	0.980924	0.343434
92	H	0.044386	0.046971	0.344078
93	H	0.122007	0.839819	0.3394
94	H	0.190833	0.911313	0.338845
95	H	0.185239	0.121997	0.338615
96	H	0.113999	0.190523	0.337339
97	H	0.834435	0.11643	0.338059
98	H	0.903228	0.187919	0.338718
99	C	0.995097	0.37219	0.320415
100	C	0.371429	0.018645	0.318982
101	C	0.017105	0.655113	0.31902
102	C	0.654324	0.99588	0.320573
103	C	0.015672	0.458876	0.3439
104	N	0.01771	0.406726	0.345716
105	C	0.567645	0.016587	0.343958
106	N	0.619795	0.018542	0.345815
107	C	0.918091	0.876621	0.673734
108	C	0.879217	0.914011	0.673802
109	C	0.902687	0.963361	0.674615
110	N	0.954877	0.953819	0.676078
111	C	0.966437	0.902022	0.675094
112	C	0.015903	0.876399	0.674536
113	C	0.064899	0.902729	0.674971
114	N	0.074125	0.954824	0.676006
115	C	0.125835	0.966023	0.675122
116	C	0.151444	0.917841	0.673611
117	C	0.114018	0.878955	0.67385
118	C	0.150189	0.016028	0.67458
119	C	0.122639	0.064473	0.674848
120	N	0.070457	0.074054	0.676225
121	C	0.058916	0.125828	0.674433
122	C	0.107271	0.151183	0.672692
123	C	0.146142	0.113775	0.673251
124	C	0.009444	0.151419	0.673501
125	C	0.960429	0.125054	0.674159
126	N	0.951166	0.072963	0.675183
127	C	0.89944	0.061761	0.67432
128	C	0.873829	0.109918	0.672812
129	C	0.911266	0.148793	0.673127
130	C	0.875071	0.011777	0.67372
131	C	0.819313	0.010077	0.669122
132	C	0.785905	0.019867	0.373412
133	C	0.731128	0.016397	0.368598
134	C	0.708076	0.002572	0.659466
135	C	0.741847	0.993351	0.621853
136	C	0.796469	0.997342	0.626479
137	C	0.008648	0.207178	0.66882
138	C	0.018308	0.240492	0.37321
139	C	0.015125	0.295287	0.368437
140	C	0.00179	0.318441	0.659236
141	C	0.992789	0.284765	0.621511
142	C	0.996475	0.230127	0.626099
143	C	0.205928	0.017509	0.670098
144	C	0.22887	0.027789	0.627021
145	C	0.28355	0.028468	0.621836
146	C	0.317361	0.018557	0.659336
147	C	0.294032	0.008177	0.369136
148	C	0.239214	0.007743	0.374468
149	C	0.016564	0.820641	0.670037
150	C	0.026568	0.797629	0.626942
151	C	0.006863	0.787415	0.374464
152	C	0.007054	0.732584	0.369163
153	C	0.017145	0.709189	0.659343
154	C	0.026991	0.742947	0.621788
155	H	0.034459	0.727999	0.589867
156	H	0.03361	0.820634	0.598872
157	H	0.999425	0.709885	0.397267
158	H	0.999286	0.803008	0.406084
159	H	0.911342	0.837247	0.672483
160	H	0.840127	0.905704	0.672816
161	H	0.980947	0.980924	0.676766
162	H	0.044386	0.046971	0.677411
163	H	0.122007	0.839819	0.672733
164	H	0.190833	0.911313	0.672178
165	H	0.205821	0.034742	0.598971
166	H	0.298452	0.036081	0.589925
167	H	0.223672	0.999847	0.40605
168	H	0.316766	0.000457	0.397192
169	H	0.185239	0.121997	0.671949
170	H	0.113999	0.190523	0.670671
171	H	0.834435	0.11643	0.671394
172	H	0.903228	0.187919	0.672051
173	H	0.026913	0.224971	0.404655
174	H	0.021343	0.318101	0.396743
175	H	0.98906	0.207063	0.598149
176	H	0.982909	0.299739	0.590107
177	H	0.819593	0.989922	0.598574
178	H	0.726951	0.983168	0.590491
179	H	0.708257	0.022801	0.396832
180	H	0.801344	0.028953	0.404789
181	C	0.995097	0.37219	0.653747
182	C	0.371429	0.018645	0.652315
183	C	0.017105	0.655113	0.652353
184	C	0.654324	0.99588	0.653905
185	H	0.971437	0.384366	0.628854
186	H	0.384445	0.021591	0.620246
187	H	0.01963	0.642092	0.62026
188	H	0.642136	0.972234	0.628994
189	C	0.015672	0.458876	0.677232
190	N	0.013906	0.484378	0.384764
191	C	0.012963	0.537293	0.389441
192	C	0.014554	0.568725	0.34954
193	N	0.017252	0.543098	0.642018
194	C	0.01783	0.490312	0.637211
195	C	0.022561	0.472233	0.595815
196	C	0.011134	0.556357	0.430724
197	N	0.009542	0.57317	0.467182
198	N	0.026647	0.456554	0.559118
199	N	0.01771	0.406726	0.679048
200	N	0.014552	0.621043	0.3515
201	C	0.567645	0.016587	0.677291
202	N	0.542099	0.0147	0.384795
203	C	0.48918	0.013814	0.389428
204	C	0.4578	0.015597	0.349502
205	N	0.483467	0.018385	0.642005
206	C	0.536262	0.018931	0.637245
207	C	0.55441	0.02368	0.595874
208	C	0.470064	0.01184	0.430686
209	N	0.4532	0.01012	0.467123
210	N	0.570142	0.027787	0.559197
211	N	0.619795	0.018542	0.679148
212	N	0.40549	0.015621	0.351431
213	C	0.918091	0.876621	0.007066
214	C	0.879217	0.914011	0.007135
215	C	0.902687	0.963361	0.007947
216	N	0.954877	0.953819	0.00941
217	C	0.966437	0.902022	0.00843
218	C	0.015903	0.876399	0.007868
219	C	0.064899	0.902729	0.008303
220	N	0.074125	0.954824	0.009338
221	C	0.125835	0.966023	0.008454
222	C	0.151444	0.917841	0.006943
223	C	0.114018	0.878955	0.007183
224	C	0.150189	0.016028	0.007916
225	C	0.122639	0.064473	0.00818
226	N	0.070457	0.074054	0.009561
227	C	0.058916	0.125828	0.007765
228	C	0.107271	0.151183	0.006025
229	C	0.146142	0.113775	0.006583
230	C	0.009444	0.151419	0.006833
231	C	0.960429	0.125054	0.007491
232	N	0.951166	0.072963	0.008516
233	C	0.89944	0.061761	0.007652
234	C	0.873829	0.109918	0.006148
235	C	0.911266	0.148793	0.00646
236	C	0.875071	0.011777	0.007053
237	C	0.819313	0.010077	0.002454
238	C	0.785905	0.019867	0.706745
239	C	0.731128	0.016397	0.70193
240	C	0.708076	0.002572	0.992799
241	C	0.741847	0.993351	0.955186
242	C	0.796469	0.997342	0.959812
243	C	0.008648	0.207178	0.002153
244	C	0.018308	0.240492	0.706543
245	C	0.015125	0.295287	0.701769
246	C	0.00179	0.318441	0.992569
247	C	0.992789	0.284765	0.954843
248	C	0.996475	0.230127	0.959431
249	C	0.205928	0.017509	0.003431
250	C	0.22887	0.027789	0.960353
251	C	0.28355	0.028468	0.955172
252	C	0.317361	0.018557	0.992668
253	C	0.294032	0.008177	0.702468
254	C	0.239214	0.007743	0.7078
255	C	0.016564	0.820641	0.003369
256	C	0.026568	0.797629	0.960274
257	C	0.006863	0.787415	0.707797
258	C	0.007054	0.732584	0.702499
259	C	0.017145	0.709189	0.992679
260	C	0.026991	0.742947	0.955121
261	H	0.034459	0.727999	0.9232
262	H	0.03361	0.820634	0.932204
263	H	0.999425	0.709885	0.7306
264	H	0.999286	0.803008	0.739416
265	H	0.911342	0.837247	0.005819
266	H	0.840127	0.905704	0.006148
267	H	0.980947	0.980924	0.010099
268	H	0.044386	0.046971	0.010743
269	H	0.122007	0.839819	0.006066
270	H	0.190833	0.911313	0.005511
271	H	0.205821	0.034742	0.932304
272	H	0.298452	0.036081	0.923258
273	H	0.223672	0.999847	0.739382
274	H	0.316766	0.000457	0.730525
275	H	0.185239	0.121997	0.005281
276	H	0.113999	0.190523	0.004007
277	H	0.834435	0.11643	0.004726
278	H	0.903228	0.187919	0.005384
279	H	0.026913	0.224971	0.737987
280	H	0.021343	0.318101	0.730076
281	H	0.98906	0.207063	0.931481
282	H	0.982909	0.299739	0.923439
283	H	0.819593	0.989922	0.931906
284	H	0.726951	0.983168	0.923823
285	H	0.708257	0.022801	0.730165
286	H	0.801344	0.028953	0.738121
287	C	0.995097	0.37219	0.98708
288	C	0.371429	0.018645	0.985647
289	C	0.017105	0.655113	0.985685
290	C	0.654324	0.99588	0.987241
291	H	0.971437	0.384366	0.962186
292	H	0.384445	0.021591	0.953579
293	H	0.01963	0.642092	0.953593
294	H	0.642136	0.972234	0.962327
295	C	0.015672	0.458876	0.010568
296	N	0.013906	0.484378	0.7181
297	C	0.012963	0.537293	0.722774
298	C	0.014554	0.568725	0.682872
299	N	0.017252	0.543098	0.975354
300	C	0.01783	0.490312	0.970543
301	C	0.022561	0.472233	0.929148
302	C	0.011134	0.556357	0.764056
303	N	0.009542	0.57317	0.800514
304	N	0.026647	0.456554	0.892454
305	N	0.01771	0.406726	0.012381
306	N	0.014552	0.621043	0.684832
307	C	0.567645	0.016587	0.010623
308	N	0.542099	0.0147	0.718131
309	C	0.48918	0.013814	0.72276
310	C	0.4578	0.015597	0.682835
311	N	0.483467	0.018385	0.975341
312	C	0.536262	0.018931	0.970581
313	C	0.55441	0.02368	0.929206
314	C	0.470064	0.01184	0.764019
315	N	0.4532	0.01012	0.800456
316	N	0.570142	0.027787	0.892529
317	N	0.619795	0.018542	0.01248
318	N	0.40549	0.015621	0.684764
