data_C126H90N72O18_2018-02-15_10:32:31
#******************************************
#
# CIF file created by Zeo++
# Zeo++ is an open source package to
# analyze microporous materials
#
#*******************************************

_cell_length_a		29.1609   
_cell_length_b		29.1615   
_cell_length_c		30.0682   
_cell_angle_alpha		90   
_cell_angle_beta		90   
_cell_angle_gamma		120   

_symmetry_space_group_name_H-M		'P1'
_symmetry_Int_Tables_number		1
_symmetry_cell_setting		Monoclinic

loop_
_symmetry_equiv_pos_as_xyz
'+x,+y,+z'

loop_
_atom_site_label
_atom_site_type_symbol
_atom_site_fract_x
_atom_site_fract_y
_atom_site_fract_z
1	C	0.278444	0.629188	0.966061
2	N	0.315172	0.613523	0.966071
3	C	0.367974	0.648875	0.298834
4	N	0.383642	0.701266	0.965855
5	C	0.348285	0.718716	0.965862
6	N	0.295895	0.68199	0.96642
7	C	0.405924	0.632237	0.967734
8	C	0.364933	0.773272	0.301903
9	C	0.223903	0.59127	0.968878
10	O	0.326758	0.786636	0.972098
11	O	0.210558	0.539719	0.972177
12	O	0.457555	0.67046	0.970079
13	C	0.719072	0.363026	0.034878
14	N	0.6878	0.385294	0.034456
15	C	0.634132	0.355446	0.367718
16	N	0.611856	0.301904	0.034776
17	C	0.641697	0.278077	0.035179
18	N	0.695248	0.309357	0.03523
19	C	0.6018	0.378812	0.033331
20	C	0.61835	0.222358	0.368103
21	C	0.774781	0.395393	0.034302
22	O	0.651457	0.202601	0.039178
23	O	0.794551	0.448314	0.038151
24	O	0.54899	0.345939	0.03841
25	C	0.589701	0.453149	0.018045
26	C	0.592946	0.480934	0.312064
27	N	0.55936	0.499683	0.305514
28	C	0.522585	0.494781	0.002466
29	C	0.518629	0.46936	0.043812
30	C	0.553033	0.44894	0.050777
31	H	0.550959	0.429969	0.079998
32	C	0.489609	0.515137	0.323489
33	C	0.451506	0.493648	0.28875
34	C	0.419974	0.51724	0.281116
35	C	0.42632	0.561006	0.306224
36	C	0.464821	0.579862	0.006929
37	N	0.494346	0.556659	0.014266
38	H	0.391532	0.50215	0.25685
39	H	0.46962	0.609679	0.027665
40	H	0.618706	0.485048	0.287268
41	N	0.443035	0.451054	0.264019
42	H	0.462623	0.432685	0.269203
43	H	0.416078	0.436843	0.240884
44	N	0.48267	0.462371	0.075756
45	H	0.480556	0.444093	0.103439
46	H	0.457126	0.474131	0.071663
47	N	0.392458	0.58025	0.299997
48	H	0.355733	0.554033	0.2934
49	N	0.620987	0.430943	0.023504
50	H	0.657684	0.451917	0.013685
51	C	0.543925	0.135717	0.020325
52	C	0.515054	0.111156	0.314764
53	N	0.496469	0.058912	0.307867
54	C	0.502586	0.027123	0.004086
55	C	0.529178	0.048585	0.045026
56	C	0.549364	0.10331	0.052365
57	H	0.569135	0.120192	0.081304
58	C	0.482149	0.973877	0.324784
59	C	0.502532	0.957599	0.288942
60	C	0.478926	0.902536	0.280988
61	C	0.436113	0.864864	0.306806
62	C	0.418302	0.884171	0.008567
63	N	0.44157	0.936842	0.016225
64	H	0.493264	0.889414	0.25593
65	H	0.389312	0.858936	0.029831
66	H	0.509993	0.13274	0.290471
67	N	0.544141	0.991989	0.263418
68	H	0.56254	0.029914	0.268754
69	H	0.557616	0.979468	0.239511
70	N	0.537403	0.019688	0.076226
71	H	0.556598	0.035882	0.10357
72	H	0.525988	0.982517	0.071734
73	N	0.416871	0.811832	0.300192
74	H	0.442965	0.801445	0.292693
75	N	0.565965	0.189185	0.025975
76	H	0.544698	0.204736	0.016566
77	C	0.861427	0.407395	0.020344
78	C	0.88613	0.40294	0.314934
79	N	0.938387	0.436605	0.308118
80	C	0.970058	0.474618	0.004313
81	C	0.948454	0.479892	0.045117
82	C	0.8937	0.445384	0.052343
83	H	0.8767	0.448405	0.081163
84	C	0.023301	0.507523	0.325074
85	C	0.039559	0.544328	0.289342
86	C	0.094627	0.575926	0.281468
87	C	0.132312	0.570779	0.307264
88	C	0.11302	0.53353	0.008928
89	N	0.060343	0.503975	0.0165
90	H	0.107735	0.60347	0.256478
91	H	0.138271	0.529705	0.030121
92	H	0.864625	0.376219	0.290661
93	N	0.005141	0.551531	0.263845
94	H	0.9672	0.531863	0.269113
95	H	0.01764	0.577613	0.240008
96	N	0.977225	0.517153	0.076261
97	H	0.960973	0.520142	0.103572
98	H	0.014469	0.54276	0.071914
99	N	0.185331	0.604638	0.300688
100	H	0.195687	0.641138	0.293297
101	N	0.807932	0.37608	0.025867
102	H	0.792464	0.339138	0.016835
103	C	0.278444	0.629188	0.299396
104	N	0.315172	0.613523	0.299406
105	C	0.367974	0.648875	0.632167
106	N	0.383642	0.701266	0.299188
107	C	0.348285	0.718716	0.299195
108	N	0.295895	0.68199	0.299754
109	C	0.405924	0.632237	0.301067
110	C	0.364933	0.773272	0.635236
111	C	0.223903	0.59127	0.302211
112	O	0.326758	0.786636	0.305432
113	O	0.210558	0.539719	0.305512
114	O	0.457555	0.67046	0.303413
115	C	0.719072	0.363026	0.368213
116	N	0.6878	0.385294	0.367788
117	C	0.634132	0.355446	0.70105
118	N	0.611856	0.301904	0.36811
119	C	0.641697	0.278077	0.368513
120	N	0.695248	0.309357	0.368562
121	C	0.6018	0.378812	0.366663
122	C	0.61835	0.222358	0.701439
123	C	0.774781	0.395393	0.367635
124	O	0.651457	0.202601	0.37251
125	O	0.794551	0.448314	0.371486
126	O	0.54899	0.345939	0.371742
127	C	0.589701	0.453149	0.351378
128	C	0.592946	0.480934	0.645397
129	N	0.55936	0.499683	0.638848
130	C	0.522585	0.494781	0.3358
131	C	0.518629	0.46936	0.377146
132	C	0.553033	0.44894	0.38411
133	H	0.550959	0.429969	0.413331
134	C	0.489609	0.515137	0.656821
135	C	0.451506	0.493648	0.622083
136	C	0.419974	0.51724	0.61445
137	C	0.42632	0.561006	0.639557
138	C	0.464821	0.579862	0.34026
139	N	0.494346	0.556659	0.3476
140	H	0.391532	0.50215	0.590182
141	H	0.46962	0.609679	0.360996
142	H	0.618706	0.485048	0.6206
143	N	0.443035	0.451054	0.597353
144	H	0.462623	0.432685	0.602537
145	H	0.416078	0.436843	0.574218
146	N	0.48267	0.462371	0.40909
147	H	0.480556	0.444093	0.436771
148	H	0.457126	0.474131	0.404996
149	N	0.392458	0.58025	0.633331
150	H	0.355733	0.554033	0.626732
151	N	0.620987	0.430943	0.356836
152	H	0.657684	0.451917	0.347018
153	C	0.543925	0.135717	0.35366
154	C	0.515054	0.111156	0.648097
155	N	0.496469	0.058912	0.6412
156	C	0.502586	0.027123	0.33742
157	C	0.529178	0.048585	0.37836
158	C	0.549364	0.10331	0.385697
159	H	0.569135	0.120192	0.414638
160	C	0.482149	0.973877	0.658118
161	C	0.502532	0.957599	0.622276
162	C	0.478926	0.902536	0.614321
163	C	0.436113	0.864864	0.640139
164	C	0.418302	0.884171	0.3419
165	N	0.44157	0.936842	0.349559
166	H	0.493264	0.889414	0.589264
167	H	0.389312	0.858936	0.363165
168	H	0.509993	0.13274	0.623802
169	N	0.544141	0.991989	0.596751
170	H	0.56254	0.029914	0.602088
171	H	0.557616	0.979468	0.572845
172	N	0.537403	0.019688	0.409559
173	H	0.556598	0.035882	0.436904
174	H	0.525988	0.982517	0.405066
175	N	0.416871	0.811832	0.633524
176	H	0.442965	0.801445	0.626027
177	N	0.565965	0.189185	0.359307
178	H	0.544698	0.204736	0.349898
179	C	0.861427	0.407395	0.353676
180	C	0.88613	0.40294	0.648267
181	N	0.938387	0.436605	0.641452
182	C	0.970058	0.474618	0.337646
183	C	0.948454	0.479892	0.37845
184	C	0.8937	0.445384	0.385677
185	H	0.8767	0.448405	0.414495
186	C	0.023301	0.507523	0.658407
187	C	0.039559	0.544328	0.622675
188	C	0.094627	0.575926	0.614803
189	C	0.132312	0.570779	0.640598
190	C	0.11302	0.53353	0.342262
191	N	0.060343	0.503975	0.349832
192	H	0.107735	0.60347	0.58981
193	H	0.138271	0.529705	0.363454
194	H	0.864625	0.376219	0.623995
195	N	0.005141	0.551531	0.59718
196	H	0.9672	0.531863	0.602448
197	H	0.01764	0.577613	0.57334
198	N	0.977225	0.517153	0.409596
199	H	0.960973	0.520142	0.436904
200	H	0.014469	0.54276	0.405246
201	N	0.185331	0.604638	0.634019
202	H	0.195687	0.641138	0.626629
203	N	0.807932	0.37608	0.3592
204	H	0.792464	0.339138	0.350168
205	C	0.278444	0.629188	0.632729
206	N	0.315172	0.613523	0.632739
207	C	0.367974	0.648875	0.965499
208	N	0.383642	0.701266	0.632523
209	C	0.348285	0.718716	0.632529
210	N	0.295895	0.68199	0.633088
211	C	0.405924	0.632237	0.634402
212	C	0.364933	0.773272	0.968569
213	C	0.223903	0.59127	0.635542
214	O	0.326758	0.786636	0.638765
215	O	0.210558	0.539719	0.638845
216	O	0.457555	0.67046	0.636746
217	C	0.719072	0.363026	0.701546
218	N	0.6878	0.385294	0.701123
219	C	0.634132	0.355446	0.034383
220	N	0.611856	0.301904	0.701443
221	C	0.641697	0.278077	0.701845
222	N	0.695248	0.309357	0.701895
223	C	0.6018	0.378812	0.699996
224	C	0.61835	0.222358	0.034772
225	C	0.774781	0.395393	0.700967
226	O	0.651457	0.202601	0.705843
227	O	0.794551	0.448314	0.704818
228	O	0.54899	0.345939	0.705078
229	C	0.589701	0.453149	0.684711
230	C	0.592946	0.480934	0.978729
231	N	0.55936	0.499683	0.972181
232	C	0.522585	0.494781	0.669133
233	C	0.518629	0.46936	0.710479
234	C	0.553033	0.44894	0.717443
235	H	0.550959	0.429969	0.746663
236	C	0.489609	0.515137	0.990153
237	C	0.451506	0.493648	0.955415
238	C	0.419974	0.51724	0.947783
239	C	0.42632	0.561006	0.972889
240	C	0.464821	0.579862	0.673596
241	N	0.494346	0.556659	0.680933
242	H	0.391532	0.50215	0.923515
243	H	0.46962	0.609679	0.694332
244	H	0.618706	0.485048	0.953936
245	N	0.443035	0.451054	0.930685
246	H	0.462623	0.432685	0.93587
247	H	0.416078	0.436843	0.907551
248	N	0.48267	0.462371	0.742423
249	H	0.480556	0.444093	0.770107
250	H	0.457126	0.474131	0.738329
251	N	0.392458	0.58025	0.966663
252	H	0.355733	0.554033	0.960065
253	N	0.620987	0.430943	0.690168
254	H	0.657684	0.451917	0.680351
255	C	0.543925	0.135717	0.686992
256	C	0.515054	0.111156	0.98143
257	N	0.496469	0.058912	0.974532
258	C	0.502586	0.027123	0.670752
259	C	0.529178	0.048585	0.711693
260	C	0.549364	0.10331	0.719029
261	H	0.569135	0.120192	0.74797
262	C	0.482149	0.973877	0.99145
263	C	0.502532	0.957599	0.955608
264	C	0.478926	0.902536	0.947653
265	C	0.436113	0.864864	0.973471
266	C	0.418302	0.884171	0.675232
267	N	0.44157	0.936842	0.682891
268	H	0.493264	0.889414	0.922597
269	H	0.389312	0.858936	0.696497
270	H	0.509993	0.13274	0.957138
271	N	0.544141	0.991989	0.930083
272	H	0.56254	0.029914	0.935421
273	H	0.557616	0.979468	0.906177
274	N	0.537403	0.019688	0.742892
275	H	0.556598	0.035882	0.770236
276	H	0.525988	0.982517	0.738402
277	N	0.416871	0.811832	0.966859
278	H	0.442965	0.801445	0.95936
279	N	0.565965	0.189185	0.692643
280	H	0.544698	0.204736	0.683231
281	C	0.861427	0.407395	0.687009
282	C	0.88613	0.40294	0.981599
283	N	0.938387	0.436605	0.974785
284	C	0.970058	0.474618	0.670979
285	C	0.948454	0.479892	0.711782
286	C	0.8937	0.445384	0.719009
287	H	0.8767	0.448405	0.747827
288	C	0.023301	0.507523	0.99174
289	C	0.039559	0.544328	0.956007
290	C	0.094627	0.575926	0.948135
291	C	0.132312	0.570779	0.97393
292	C	0.11302	0.53353	0.675595
293	N	0.060343	0.503975	0.683164
294	H	0.107735	0.60347	0.923145
295	H	0.138271	0.529705	0.696787
296	H	0.864625	0.376219	0.957328
297	N	0.005141	0.551531	0.930512
298	H	0.9672	0.531863	0.93578
299	H	0.01764	0.577613	0.906673
300	N	0.977225	0.517153	0.742928
301	H	0.960973	0.520142	0.77024
302	H	0.014469	0.54276	0.738582
303	N	0.185331	0.604638	0.967355
304	H	0.195687	0.641138	0.959965
305	N	0.807932	0.37608	0.692533
306	H	0.792464	0.339138	0.6835
