data_C174H114N36O6_2018-02-15_10:47:45
#******************************************
#
# CIF file created by Zeo++
# Zeo++ is an open source package to
# analyze microporous materials
#
#*******************************************

_cell_length_a		25.5318   
_cell_length_b		25.5316   
_cell_length_c		29.1282   
_cell_angle_alpha		90   
_cell_angle_beta		90   
_cell_angle_gamma		90.0373   

_symmetry_space_group_name_H-M		'P1'
_symmetry_Int_Tables_number		1
_symmetry_cell_setting		Monoclinic

loop_
_symmetry_equiv_pos_as_xyz
'+x,+y,+z'

loop_
_atom_site_label
_atom_site_type_symbol
_atom_site_fract_x
_atom_site_fract_y
_atom_site_fract_z
1	C	0.107392	0.152716	0.338875
2	C	0.819467	0.009791	0.337651
3	C	0.787524	0.019232	0.043109
4	C	0.732641	0.013779	0.040397
5	C	0.708343	0.998112	0.332279
6	C	0.740341	0.989178	0.293417
7	C	0.795061	0.995421	0.295936
8	C	0.008168	0.208456	0.337067
9	C	0.017862	0.240273	0.042566
10	C	0.01276	0.295195	0.039945
11	C	0.997341	0.319671	0.331848
12	C	0.988284	0.287805	0.292916
13	C	0.994143	0.233046	0.295349
14	C	0.206785	0.019104	0.336596
15	C	0.229598	0.027343	0.293025
16	C	0.28435	0.026745	0.287524
17	C	0.318251	0.017718	0.325238
18	C	0.295081	0.009686	0.035578
19	C	0.240199	0.010387	0.041192
20	C	0.017937	0.821245	0.336819
21	C	0.02553	0.798422	0.293169
22	C	0.009709	0.787866	0.041526
23	C	0.008761	0.732982	0.035918
24	C	0.016105	0.709799	0.325493
25	C	0.024704	0.743678	0.28768
26	H	0.030048	0.728802	0.25536
27	H	0.031245	0.821581	0.264908
28	H	0.001809	0.710124	0.064128
29	H	0.00364	0.803388	0.073484
30	H	0.123539	0.840785	0.339012
31	H	0.192211	0.912747	0.338569
32	H	0.206418	0.033231	0.264808
33	H	0.299213	0.032507	0.255253
34	H	0.224702	0.003724	0.073072
35	H	0.317943	0.002373	0.063709
36	H	0.185642	0.123762	0.337784
37	H	0.113903	0.192131	0.336672
38	H	0.027373	0.223507	0.073374
39	H	0.018534	0.316984	0.069015
40	H	0.986307	0.211019	0.266789
41	H	0.976525	0.304128	0.262491
42	H	0.817177	0.987819	0.267387
43	H	0.724142	0.97729	0.262971
44	H	0.710757	0.019458	0.069422
45	H	0.804169	0.029021	0.073907
46	C	0.987157	0.372944	0.329456
47	C	0.372245	0.015415	0.317828
48	C	0.013685	0.655811	0.318104
49	C	0.655066	0.987905	0.329742
50	H	0.953641	0.384279	0.315161
51	H	0.384804	0.011229	0.285657
52	H	0.00898	0.643265	0.28598
53	H	0.643717	0.954452	0.315319
54	N	0.024923	0.48534	0.049534
55	C	0.025103	0.538372	0.053514
56	N	0.00942	0.543252	0.307151
57	C	0.008638	0.490188	0.302533
58	H	0.031858	0.555151	0.084814
59	C	0.001879	0.468415	0.255671
60	O	0.043893	0.434352	0.242721
61	H	0.998496	0.499792	0.230223
62	H	0.965451	0.4462	0.254345
63	H	0.076106	0.455412	0.24027
64	N	0.01805	0.621359	0.016888
65	N	0.542618	0.025664	0.049615
66	C	0.489579	0.025948	0.053483
67	N	0.484854	0.010614	0.307054
68	C	0.537936	0.009736	0.30255
69	H	0.472741	0.032539	0.084781
70	C	0.55983	0.003105	0.255722
71	O	0.59401	0.045139	0.24295
72	H	0.528522	0.999819	0.230197
73	H	0.581983	0.966668	0.254362
74	H	0.573018	0.077372	0.240522
75	N	0.406674	0.01919	0.01669
76	C	0.919182	0.876725	0.341728
77	C	0.880051	0.913985	0.341861
78	C	0.903337	0.963562	0.341701
79	N	0.955697	0.954323	0.342522
80	C	0.967495	0.902466	0.342131
81	C	0.017161	0.877046	0.341403
82	C	0.066129	0.903594	0.34165
83	N	0.075112	0.955823	0.3428
84	C	0.126856	0.967264	0.341781
85	C	0.152739	0.919092	0.340136
86	C	0.115415	0.879952	0.34029
87	C	0.15099	0.017489	0.341193
88	C	0.123203	0.065912	0.341289
89	N	0.070873	0.075264	0.342787
90	C	0.059067	0.127088	0.340927
91	C	0.146532	0.115399	0.33933
92	C	0.009358	0.152471	0.340287
93	C	0.960362	0.125826	0.340946
94	N	0.951363	0.073585	0.341551
95	C	0.899589	0.062112	0.341118
96	C	0.873629	0.110215	0.340211
97	C	0.910949	0.149353	0.340586
98	C	0.87543	0.011922	0.340763
99	H	0.912607	0.837244	0.34124
100	H	0.840953	0.905423	0.341659
101	H	0.981639	0.981548	0.342269
102	H	0.044944	0.048078	0.34445
103	H	0.834122	0.116525	0.339438
104	H	0.90264	0.188494	0.340146
105	C	0.016246	0.459536	0.342725
106	N	0.019839	0.407534	0.344014
107	C	0.568502	0.017139	0.342827
108	N	0.620506	0.020604	0.344244
109	C	0.016941	0.569216	0.34744
110	N	0.01805	0.621359	0.350221
111	C	0.458816	0.018046	0.347313
112	N	0.406674	0.01919	0.350022
113	C	0.295081	0.009686	0.368911
114	C	0.008761	0.732982	0.369251
115	C	0.016941	0.569216	0.014104
116	C	0.458816	0.018046	0.01398
117	C	0.919182	0.876725	0.675061
118	C	0.880051	0.913985	0.675195
119	C	0.903337	0.963562	0.675033
120	N	0.955697	0.954323	0.675854
121	C	0.967495	0.902466	0.675466
122	C	0.017161	0.877046	0.674735
123	C	0.066129	0.903594	0.674982
124	N	0.075112	0.955823	0.676132
125	C	0.126856	0.967264	0.675116
126	C	0.152739	0.919092	0.673468
127	C	0.115415	0.879952	0.673622
128	C	0.15099	0.017489	0.674525
129	C	0.123203	0.065912	0.674621
130	N	0.070873	0.075264	0.676118
131	C	0.059067	0.127088	0.674261
132	C	0.107392	0.152716	0.672208
133	C	0.146532	0.115399	0.672665
134	C	0.009358	0.152471	0.673619
135	C	0.960362	0.125826	0.674278
136	N	0.951363	0.073585	0.674886
137	C	0.899589	0.062112	0.67445
138	C	0.873629	0.110215	0.673543
139	C	0.910949	0.149353	0.673918
140	C	0.87543	0.011922	0.674096
141	C	0.819467	0.009791	0.670986
142	C	0.787524	0.019232	0.376443
143	C	0.732641	0.013779	0.373731
144	C	0.708343	0.998112	0.665613
145	C	0.740341	0.989178	0.62675
146	C	0.795061	0.995421	0.62927
147	C	0.008168	0.208456	0.670402
148	C	0.017862	0.240273	0.3759
149	C	0.01276	0.295195	0.373278
150	C	0.997341	0.319671	0.66518
151	C	0.988284	0.287805	0.626249
152	C	0.994143	0.233046	0.628683
153	C	0.206785	0.019104	0.669928
154	C	0.229598	0.027343	0.626359
155	C	0.28435	0.026745	0.620859
156	C	0.318251	0.017718	0.658572
157	C	0.240199	0.010387	0.374524
158	C	0.017937	0.821245	0.670152
159	C	0.02553	0.798422	0.626503
160	C	0.009709	0.787866	0.37486
161	C	0.016105	0.709799	0.658826
162	C	0.024704	0.743678	0.621014
163	H	0.030048	0.728802	0.588694
164	H	0.031245	0.821581	0.598242
165	H	0.001809	0.710124	0.39746
166	H	0.00364	0.803388	0.406816
167	H	0.912607	0.837244	0.674573
168	H	0.840953	0.905423	0.674992
169	H	0.981639	0.981548	0.675603
170	H	0.044944	0.048078	0.677783
171	H	0.123539	0.840785	0.672345
172	H	0.192211	0.912747	0.671902
173	H	0.206418	0.033231	0.598142
174	H	0.299213	0.032507	0.588588
175	H	0.224702	0.003724	0.406404
176	H	0.317943	0.002373	0.397042
177	H	0.185642	0.123762	0.671116
178	H	0.113903	0.192131	0.670007
179	H	0.834122	0.116525	0.672771
180	H	0.90264	0.188494	0.673478
181	H	0.027373	0.223507	0.406706
182	H	0.018534	0.316984	0.402349
183	H	0.986307	0.211019	0.600123
184	H	0.976525	0.304128	0.595825
185	H	0.817177	0.987819	0.60072
186	H	0.724142	0.97729	0.596306
187	H	0.710757	0.019458	0.402754
188	H	0.804169	0.029021	0.407241
189	C	0.987157	0.372944	0.662791
190	C	0.372245	0.015415	0.65116
191	C	0.013685	0.655811	0.651438
192	C	0.655066	0.987905	0.663076
193	H	0.953641	0.384279	0.648496
194	H	0.384804	0.011229	0.618988
195	H	0.00898	0.643265	0.619314
196	H	0.643717	0.954452	0.648653
197	C	0.016246	0.459536	0.676056
198	N	0.024923	0.48534	0.382866
199	C	0.025103	0.538372	0.386849
200	N	0.00942	0.543252	0.640483
201	C	0.008638	0.490188	0.635865
202	H	0.031858	0.555151	0.418148
203	C	0.001879	0.468415	0.589003
204	O	0.043893	0.434352	0.576054
205	H	0.998496	0.499792	0.563557
206	H	0.965451	0.4462	0.587678
207	H	0.076106	0.455412	0.573602
208	N	0.019839	0.407534	0.677347
209	C	0.568502	0.017139	0.676159
210	N	0.542618	0.025664	0.382949
211	C	0.489579	0.025948	0.386818
212	N	0.484854	0.010614	0.640387
213	C	0.537936	0.009736	0.635882
214	H	0.472741	0.032539	0.418114
215	C	0.55983	0.003105	0.589055
216	O	0.59401	0.045139	0.576284
217	H	0.528522	0.999819	0.56353
218	H	0.581983	0.966668	0.587695
219	H	0.573018	0.077372	0.573856
220	N	0.620506	0.020604	0.677577
221	C	0.919182	0.876725	0.008394
222	C	0.880051	0.913985	0.008528
223	C	0.903337	0.963562	0.008367
224	N	0.955697	0.954323	0.009187
225	C	0.967495	0.902466	0.008799
226	C	0.017161	0.877046	0.008068
227	C	0.066129	0.903594	0.008315
228	N	0.075112	0.955823	0.009465
229	C	0.126856	0.967264	0.008446
230	C	0.152739	0.919092	0.006801
231	C	0.115415	0.879952	0.006956
232	C	0.15099	0.017489	0.007859
233	C	0.123203	0.065912	0.007955
234	N	0.070873	0.075264	0.009452
235	C	0.059067	0.127088	0.007594
236	C	0.107392	0.152716	0.005541
237	C	0.146532	0.115399	0.005998
238	C	0.009358	0.152471	0.006952
239	C	0.960362	0.125826	0.007612
240	N	0.951363	0.073585	0.008219
241	C	0.899589	0.062112	0.007783
242	C	0.873629	0.110215	0.006877
243	C	0.910949	0.149353	0.007251
244	C	0.87543	0.011922	0.00743
245	C	0.819467	0.009791	0.004316
246	C	0.787524	0.019232	0.709776
247	C	0.732641	0.013779	0.707064
248	C	0.708343	0.998112	0.998946
249	C	0.740341	0.989178	0.960084
250	C	0.795061	0.995421	0.962604
251	C	0.008168	0.208456	0.003732
252	C	0.017862	0.240273	0.709234
253	C	0.01276	0.295195	0.706611
254	C	0.997341	0.319671	0.998514
255	C	0.988284	0.287805	0.959582
256	C	0.994143	0.233046	0.962017
257	C	0.206785	0.019104	0.003262
258	C	0.229598	0.027343	0.959692
259	C	0.28435	0.026745	0.954189
260	C	0.318251	0.017718	0.991905
261	C	0.295081	0.009686	0.702244
262	C	0.240199	0.010387	0.707857
263	C	0.017937	0.821245	0.003485
264	C	0.02553	0.798422	0.959837
265	C	0.009709	0.787866	0.708194
266	C	0.008761	0.732982	0.702584
267	C	0.016105	0.709799	0.992159
268	C	0.024704	0.743678	0.954347
269	H	0.030048	0.728802	0.922028
270	H	0.031245	0.821581	0.931575
271	H	0.001809	0.710124	0.730794
272	H	0.00364	0.803388	0.740149
273	H	0.912607	0.837244	0.007907
274	H	0.840953	0.905423	0.008326
275	H	0.981639	0.981548	0.008937
276	H	0.044944	0.048078	0.011117
277	H	0.123539	0.840785	0.005679
278	H	0.192211	0.912747	0.005236
279	H	0.206418	0.033231	0.931476
280	H	0.299213	0.032507	0.921921
281	H	0.224702	0.003724	0.739737
282	H	0.317943	0.002373	0.730375
283	H	0.185642	0.123762	0.00445
284	H	0.113903	0.192131	0.003337
285	H	0.834122	0.116525	0.006104
286	H	0.90264	0.188494	0.006812
287	H	0.027373	0.223507	0.740039
288	H	0.018534	0.316984	0.735683
289	H	0.986307	0.211019	0.933457
290	H	0.976525	0.304128	0.929158
291	H	0.817177	0.987819	0.934054
292	H	0.724142	0.97729	0.929639
293	H	0.710757	0.019458	0.736088
294	H	0.804169	0.029021	0.740575
295	C	0.987157	0.372944	0.996124
296	C	0.372245	0.015415	0.984493
297	C	0.013685	0.655811	0.984771
298	C	0.655066	0.987905	0.996409
299	H	0.953641	0.384279	0.981829
300	H	0.384804	0.011229	0.952321
301	H	0.00898	0.643265	0.952648
302	H	0.643717	0.954452	0.981987
303	C	0.016246	0.459536	0.00939
304	N	0.024923	0.48534	0.7162
305	C	0.025103	0.538372	0.720182
306	C	0.016941	0.569216	0.680774
307	N	0.00942	0.543252	0.973816
308	C	0.008638	0.490188	0.969199
309	H	0.031858	0.555151	0.751482
310	C	0.001879	0.468415	0.922337
311	O	0.043893	0.434352	0.909387
312	H	0.998496	0.499792	0.896891
313	H	0.965451	0.4462	0.921012
314	H	0.076106	0.455412	0.906936
315	N	0.019839	0.407534	0.010681
316	N	0.01805	0.621359	0.683554
317	C	0.568502	0.017139	0.009493
318	N	0.542618	0.025664	0.716282
319	C	0.489579	0.025948	0.720148
320	C	0.458816	0.018046	0.680647
321	N	0.484854	0.010614	0.97372
322	C	0.537936	0.009736	0.969216
323	H	0.472741	0.032539	0.751447
324	C	0.55983	0.003105	0.922388
325	O	0.59401	0.045139	0.909617
326	H	0.528522	0.999819	0.896863
327	H	0.581983	0.966668	0.921029
328	H	0.573018	0.077372	0.90719
329	N	0.620506	0.020604	0.010911
330	N	0.406674	0.01919	0.683355
