data_C243H81N81_2018-02-15_10:40:00
#******************************************
#
# CIF file created by Zeo++
# Zeo++ is an open source package to
# analyze microporous materials
#
#*******************************************

_cell_length_a		30.2393   
_cell_length_b		30.2393   
_cell_length_c		29.4122   
_cell_angle_alpha		90   
_cell_angle_beta		90   
_cell_angle_gamma		120   

_symmetry_space_group_name_H-M		'P1'
_symmetry_Int_Tables_number		1
_symmetry_cell_setting		Monoclinic

loop_
_symmetry_equiv_pos_as_xyz
'+x,+y,+z'

loop_
_atom_site_label
_atom_site_type_symbol
_atom_site_fract_x
_atom_site_fract_y
_atom_site_fract_z
1	C	0.122362	0.563426	0.009881
2	H	0.130374	0.63728	0.011221
3	H	0.129952	0.497346	0.008337
4	C	0.068221	0.536498	0.341756
5	N	0.042127	0.523408	0.04845
6	C	0.039273	0.522136	0.300988
7	C	0.059514	0.532316	0.260597
8	N	0.077633	0.54142	0.225045
9	C	0.122362	0.563426	0.343215
10	H	0.130374	0.63728	0.344555
11	H	0.129952	0.497346	0.341671
12	C	0.068221	0.536498	0.675088
13	N	0.042127	0.523408	0.381784
14	C	0.039273	0.522136	0.634322
15	C	0.059514	0.532316	0.593931
16	N	0.077633	0.54142	0.558378
17	C	0.122362	0.563426	0.676546
18	H	0.130374	0.63728	0.677886
19	H	0.129952	0.497346	0.675006
20	C	0.068221	0.536498	0.008422
21	N	0.042127	0.523408	0.715115
22	C	0.039273	0.522136	0.967654
23	C	0.059514	0.532316	0.927262
24	N	0.077633	0.54142	0.891712
25	C	0.203417	0.563002	0.009619
26	C	0.22983	0.616909	0.010467
27	C	0.203661	0.644643	0.010822
28	C	0.149728	0.617523	0.010846
29	C	0.14949	0.536448	0.009157
30	H	0.269047	0.636437	0.010866
31	C	0.258085	0.538632	0.30256
32	C	0.232401	0.538327	0.009439
33	N	0.256936	0.540904	0.049013
34	H	0.246677	0.544727	0.27161
35	C	0.232969	0.698396	0.01239
36	N	0.257569	0.720322	0.306127
37	C	0.258224	0.724366	0.052849
38	C	0.244312	0.70483	0.093334
39	N	0.232079	0.687292	0.128939
40	C	0.203417	0.563002	0.34295
41	C	0.22983	0.616909	0.3438
42	C	0.203661	0.644643	0.344153
43	C	0.149728	0.617523	0.344181
44	C	0.14949	0.536448	0.342491
45	H	0.269047	0.636437	0.344198
46	C	0.258085	0.538632	0.635893
47	C	0.232401	0.538327	0.342773
48	N	0.256936	0.540904	0.382345
49	H	0.246677	0.544727	0.604943
50	C	0.232969	0.698396	0.345724
51	N	0.257569	0.720322	0.63946
52	C	0.258224	0.724366	0.38618
53	C	0.244312	0.70483	0.426667
54	N	0.232079	0.687292	0.462271
55	C	0.203417	0.563002	0.676284
56	C	0.22983	0.616909	0.677134
57	C	0.203661	0.644643	0.677488
58	C	0.149728	0.617523	0.677512
59	C	0.14949	0.536448	0.675825
60	H	0.269047	0.636437	0.677532
61	C	0.258085	0.538632	0.969224
62	C	0.232401	0.538327	0.676108
63	N	0.256936	0.540904	0.71568
64	H	0.246677	0.544727	0.938275
65	C	0.232969	0.698396	0.679055
66	N	0.257569	0.720322	0.972794
67	C	0.258224	0.724366	0.719515
68	C	0.244312	0.70483	0.760001
69	N	0.232079	0.687292	0.795606
70	N	0.304386	0.541859	0.305719
71	C	0.300815	0.539136	0.052506
72	C	0.30076	0.766519	0.302842
73	N	0.303883	0.768241	0.049392
74	N	0.304386	0.541859	0.639052
75	C	0.300815	0.539136	0.38584
76	C	0.30076	0.766519	0.636175
77	N	0.303883	0.768241	0.382726
78	N	0.304386	0.541859	0.972386
79	C	0.300815	0.539136	0.719171
80	C	0.30076	0.766519	0.969507
81	N	0.303883	0.768241	0.716057
82	C	0.462054	0.645502	0.009599
83	C	0.408146	0.618024	0.010255
84	C	0.380403	0.564129	0.010743
85	C	0.407489	0.537284	0.010835
86	C	0.46159	0.563999	0.010034
87	C	0.488591	0.618108	0.009385
88	H	0.387707	0.498171	0.011123
89	H	0.527698	0.637662	0.008664
90	H	0.388628	0.637727	0.010487
91	C	0.379577	0.821449	0.009555
92	C	0.407113	0.795078	0.010348
93	C	0.461015	0.821288	0.010675
94	C	0.487793	0.875218	0.010683
95	C	0.461022	0.902547	0.009874
96	C	0.406913	0.875382	0.0093
97	H	0.526907	0.894597	0.010971
98	H	0.387319	0.894895	0.008637
99	H	0.387456	0.755861	0.010764
100	C	0.826494	0.456934	0.008895
101	C	0.800053	0.40302	0.009208
102	C	0.826179	0.375256	0.010045
103	C	0.880105	0.402341	0.010932
104	C	0.907522	0.456453	0.010515
105	C	0.880429	0.483466	0.009555
106	H	0.899408	0.382538	0.011754
107	H	0.899979	0.522579	0.009442
108	H	0.76083	0.383512	0.009147
109	C	0.568021	0.374549	0.008705
110	C	0.621938	0.402043	0.008909
111	C	0.649684	0.455934	0.009942
112	C	0.62257	0.48274	0.011164
113	C	0.568465	0.456033	0.010643
114	C	0.541474	0.401932	0.009483
115	H	0.642356	0.521842	0.012158
116	H	0.502358	0.382358	0.00932
117	H	0.641462	0.382347	0.008728
118	C	0.650467	0.19844	0.008878
119	C	0.622978	0.224866	0.009232
120	C	0.569086	0.198719	0.010124
121	C	0.542266	0.144795	0.011088
122	C	0.568973	0.117393	0.010539
123	C	0.623076	0.144506	0.009436
124	H	0.503163	0.125479	0.012002
125	H	0.642651	0.124963	0.009201
126	H	0.642677	0.264087	0.009136
127	C	0.990312	0.497552	0.051158
128	C	0.961504	0.483298	0.34398
129	N	0.987437	0.496327	0.303933
130	H	0.973028	0.488884	0.082304
131	C	0.488499	0.536765	0.341909
132	N	0.501653	0.523824	0.048602
133	C	0.527479	0.497831	0.051307
134	C	0.541613	0.483164	0.34413
135	N	0.528539	0.496029	0.304083
136	C	0.502762	0.522086	0.301139
137	H	0.536203	0.48927	0.08245
138	C	0.492572	0.532137	0.260746
139	N	0.483478	0.541156	0.225192
140	C	0.488215	0.956694	0.341763
141	N	0.501176	0.982782	0.048459
142	C	0.527172	0.034598	0.051172
143	C	0.541839	0.06341	0.344
144	N	0.528967	0.037481	0.303949
145	C	0.502903	0.985646	0.300998
146	H	0.535741	0.051875	0.08232
147	C	0.492856	0.965415	0.260603
148	N	0.483842	0.947308	0.225047
149	C	0.326639	0.53977	0.011938
150	C	0.320427	0.545189	0.093013
151	N	0.338001	0.550825	0.128635
152	C	0.485503	0.792	0.012136
153	N	0.483096	0.767657	0.305821
154	C	0.486192	0.724515	0.302577
155	C	0.486736	0.69916	0.009402
156	N	0.484347	0.721124	0.049045
157	C	0.486181	0.766798	0.052634
158	H	0.479921	0.706988	0.271625
159	C	0.480134	0.780365	0.093132
160	N	0.47448	0.792309	0.128744
161	C	0.325898	0.792409	0.009752
162	H	0.318346	0.777711	0.271903
163	C	0.703451	0.480312	0.011485
164	N	0.72542	0.477753	0.305243
165	C	0.771625	0.480777	0.302124
166	C	0.797492	0.481618	0.009072
167	N	0.773213	0.479403	0.048676
168	C	0.729284	0.48111	0.052071
169	H	0.782958	0.474626	0.271153
170	C	0.709589	0.475279	0.092518
171	N	0.691919	0.469761	0.128086
172	C	0.54473	0.228104	0.011592
173	N	0.547096	0.252505	0.305281
174	C	0.544008	0.295629	0.301849
175	C	0.543299	0.320846	0.008647
176	N	0.545771	0.299195	0.048415
177	C	0.544184	0.253625	0.051975
178	H	0.550124	0.312954	0.270809
179	C	0.550138	0.240018	0.092491
180	N	0.555745	0.228056	0.128113
181	C	0.796718	0.321481	0.01138
182	N	0.772527	0.299402	0.305058
183	C	0.729327	0.253216	0.301883
184	C	0.70417	0.227438	0.008769
185	N	0.725862	0.251742	0.048474
186	C	0.771426	0.295745	0.051949
187	H	0.71202	0.241557	0.270873
188	C	0.785125	0.315412	0.092429
189	N	0.797163	0.333059	0.128016
190	C	0.462054	0.645502	0.342933
191	C	0.408146	0.618024	0.343589
192	C	0.380403	0.564129	0.344075
193	C	0.407489	0.537284	0.344167
194	C	0.46159	0.563999	0.343368
195	C	0.488591	0.618108	0.342715
196	H	0.387707	0.498171	0.344456
197	H	0.527698	0.637662	0.341998
198	H	0.388628	0.637727	0.34382
199	C	0.379577	0.821449	0.342889
200	C	0.407113	0.795078	0.343681
201	C	0.461015	0.821288	0.344007
202	C	0.487793	0.875218	0.344017
203	C	0.461022	0.902547	0.343208
204	C	0.406913	0.875382	0.342634
205	H	0.526907	0.894597	0.344303
206	H	0.387319	0.894895	0.341971
207	H	0.387456	0.755861	0.344096
208	C	0.826494	0.456934	0.342229
209	C	0.800053	0.40302	0.342542
210	C	0.826179	0.375256	0.343378
211	C	0.880105	0.402341	0.344266
212	C	0.907522	0.456453	0.343847
213	C	0.880429	0.483466	0.342889
214	H	0.899408	0.382538	0.345088
215	H	0.899979	0.522579	0.342776
216	H	0.76083	0.383512	0.342481
217	C	0.568021	0.374549	0.342039
218	C	0.621938	0.402043	0.342239
219	C	0.649684	0.455934	0.343276
220	C	0.62257	0.48274	0.344497
221	C	0.568465	0.456033	0.343977
222	C	0.541474	0.401932	0.342817
223	H	0.642356	0.521842	0.34549
224	H	0.502358	0.382358	0.342654
225	H	0.641462	0.382347	0.342062
226	C	0.650467	0.19844	0.342212
227	C	0.622978	0.224866	0.342566
228	C	0.569086	0.198719	0.343456
229	C	0.542266	0.144795	0.344422
230	C	0.568973	0.117393	0.343871
231	C	0.623076	0.144506	0.342766
232	H	0.503163	0.125479	0.345337
233	H	0.642651	0.124963	0.342535
234	H	0.642677	0.264087	0.34247
235	C	0.990312	0.497552	0.38449
236	C	0.961504	0.483298	0.677315
237	N	0.987437	0.496327	0.637267
238	H	0.973028	0.488884	0.415637
239	C	0.488499	0.536765	0.675244
240	N	0.501653	0.523824	0.381934
241	C	0.527479	0.497831	0.38464
242	C	0.541613	0.483164	0.677461
243	N	0.528539	0.496029	0.637416
244	C	0.502762	0.522086	0.634472
245	H	0.536203	0.48927	0.415784
246	C	0.492572	0.532137	0.59408
247	N	0.483478	0.541156	0.558524
248	C	0.488215	0.956694	0.675094
249	N	0.501176	0.982782	0.381791
250	C	0.527172	0.034598	0.384504
251	C	0.541839	0.06341	0.677332
252	N	0.528967	0.037481	0.637284
253	C	0.502903	0.985646	0.634332
254	H	0.535741	0.051875	0.415654
255	C	0.492856	0.965415	0.593938
256	N	0.483842	0.947308	0.558381
257	C	0.326639	0.53977	0.345272
258	C	0.320427	0.545189	0.426347
259	N	0.338001	0.550825	0.461968
260	C	0.485503	0.792	0.345469
261	N	0.483096	0.767657	0.639154
262	C	0.486192	0.724515	0.63591
263	C	0.486736	0.69916	0.342736
264	N	0.484347	0.721124	0.382379
265	C	0.486181	0.766798	0.385966
266	H	0.479921	0.706988	0.604957
267	C	0.480134	0.780365	0.426466
268	N	0.47448	0.792309	0.462077
269	C	0.325898	0.792409	0.343086
270	H	0.318346	0.777711	0.605236
271	C	0.703451	0.480312	0.34482
272	N	0.72542	0.477753	0.638576
273	C	0.771625	0.480777	0.635458
274	C	0.797492	0.481618	0.342406
275	N	0.773213	0.479403	0.382008
276	C	0.729284	0.48111	0.385405
277	H	0.782958	0.474626	0.604484
278	C	0.709589	0.475279	0.425851
279	N	0.691919	0.469761	0.461418
280	C	0.54473	0.228104	0.344925
281	N	0.547096	0.252505	0.638613
282	C	0.544008	0.295629	0.635182
283	C	0.543299	0.320846	0.341981
284	N	0.545771	0.299195	0.38175
285	C	0.544184	0.253625	0.38531
286	H	0.550124	0.312954	0.604141
287	C	0.550138	0.240018	0.425824
288	N	0.555745	0.228056	0.461445
289	C	0.796718	0.321481	0.344714
290	N	0.772527	0.299402	0.638392
291	C	0.729327	0.253216	0.635216
292	C	0.70417	0.227438	0.3421
293	N	0.725862	0.251742	0.381808
294	C	0.771426	0.295745	0.385283
295	H	0.71202	0.241557	0.604205
296	C	0.785125	0.315412	0.425762
297	N	0.797163	0.333059	0.46135
298	C	0.462054	0.645502	0.676267
299	C	0.408146	0.618024	0.67692
300	C	0.380403	0.564129	0.67741
301	C	0.407489	0.537284	0.677502
302	C	0.46159	0.563999	0.676699
303	C	0.488591	0.618108	0.67605
304	H	0.387707	0.498171	0.677791
305	H	0.527698	0.637662	0.675329
306	H	0.388628	0.637727	0.677151
307	C	0.379577	0.821449	0.67622
308	C	0.407113	0.795078	0.677015
309	C	0.461015	0.821288	0.677342
310	C	0.487793	0.875218	0.677349
311	C	0.461022	0.902547	0.676539
312	C	0.406913	0.875382	0.675968
313	H	0.526907	0.894597	0.677638
314	H	0.387319	0.894895	0.675302
315	H	0.387456	0.755861	0.67743
316	C	0.826494	0.456934	0.67556
317	C	0.800053	0.40302	0.675873
318	C	0.826179	0.375256	0.676709
319	C	0.880105	0.402341	0.677597
320	C	0.907522	0.456453	0.677182
321	C	0.880429	0.483466	0.676223
322	H	0.899408	0.382538	0.67842
323	H	0.899979	0.522579	0.676111
324	H	0.76083	0.383512	0.675812
325	C	0.568021	0.374549	0.675373
326	C	0.621938	0.402043	0.675574
327	C	0.649684	0.455934	0.676607
328	C	0.62257	0.48274	0.677831
329	C	0.568465	0.456033	0.677308
330	C	0.541474	0.401932	0.676148
331	H	0.642356	0.521842	0.678824
332	H	0.502358	0.382358	0.675989
333	H	0.641462	0.382347	0.675397
334	C	0.650467	0.19844	0.675543
335	C	0.622978	0.224866	0.6759
336	C	0.569086	0.198719	0.676791
337	C	0.542266	0.144795	0.677753
338	C	0.568973	0.117393	0.677206
339	C	0.623076	0.144506	0.676101
340	H	0.503163	0.125479	0.678668
341	H	0.642651	0.124963	0.675866
342	H	0.642677	0.264087	0.675805
343	C	0.990312	0.497552	0.717825
344	C	0.961504	0.483298	0.010648
345	N	0.987437	0.496327	0.970598
346	H	0.973028	0.488884	0.748969
347	C	0.488499	0.536765	0.008575
348	N	0.501653	0.523824	0.715268
349	C	0.527479	0.497831	0.717975
350	C	0.541613	0.483164	0.010796
351	N	0.528539	0.496029	0.970747
352	C	0.502762	0.522086	0.967807
353	H	0.536203	0.48927	0.749118
354	C	0.492572	0.532137	0.927412
355	N	0.483478	0.541156	0.891858
356	C	0.488215	0.956694	0.008429
357	N	0.501176	0.982782	0.715126
358	C	0.527172	0.034598	0.717839
359	C	0.541839	0.06341	0.010666
360	N	0.528967	0.037481	0.970615
361	C	0.502903	0.985646	0.967664
362	H	0.535741	0.051875	0.748986
363	C	0.492856	0.965415	0.927269
364	N	0.483842	0.947308	0.891712
365	C	0.326639	0.53977	0.678603
366	C	0.320427	0.545189	0.759678
367	N	0.338001	0.550825	0.7953
368	C	0.485503	0.792	0.6788
369	N	0.483096	0.767657	0.972488
370	C	0.486192	0.724515	0.969245
371	C	0.486736	0.69916	0.676067
372	N	0.484347	0.721124	0.71571
373	C	0.486181	0.766798	0.719301
374	H	0.479921	0.706988	0.938292
375	C	0.480134	0.780365	0.759797
376	N	0.47448	0.792309	0.795409
377	C	0.325898	0.792409	0.676417
378	H	0.318346	0.777711	0.93857
379	C	0.703451	0.480312	0.678151
380	N	0.72542	0.477753	0.97191
381	C	0.771625	0.480777	0.968789
382	C	0.797492	0.481618	0.67574
383	N	0.773213	0.479403	0.715343
384	C	0.729284	0.48111	0.718736
385	H	0.782958	0.474626	0.937819
386	C	0.709589	0.475279	0.759185
387	N	0.691919	0.469761	0.794752
388	C	0.54473	0.228104	0.67826
389	N	0.547096	0.252505	0.971948
390	C	0.544008	0.295629	0.968517
391	C	0.543299	0.320846	0.675312
392	N	0.545771	0.299195	0.715081
393	C	0.544184	0.253625	0.718641
394	H	0.550124	0.312954	0.937476
395	C	0.550138	0.240018	0.759158
396	N	0.555745	0.228056	0.79478
397	C	0.796718	0.321481	0.678046
398	N	0.772527	0.299402	0.971723
399	C	0.729327	0.253216	0.968548
400	C	0.70417	0.227438	0.675434
401	N	0.725862	0.251742	0.715139
402	C	0.771426	0.295745	0.718617
403	H	0.71202	0.241557	0.93754
404	C	0.785125	0.315412	0.759094
405	N	0.797163	0.333059	0.794681
