data_C324H108N216_2018-02-15_10:37:41
#******************************************
#
# CIF file created by Zeo++
# Zeo++ is an open source package to
# analyze microporous materials
#
#*******************************************

_cell_length_a		38.6551   
_cell_length_b		38.655   
_cell_length_c		29.4256   
_cell_angle_alpha		90   
_cell_angle_beta		90   
_cell_angle_gamma		120   

_symmetry_space_group_name_H-M		'P1'
_symmetry_Int_Tables_number		1
_symmetry_cell_setting		Monoclinic

loop_
_symmetry_equiv_pos_as_xyz
'+x,+y,+z'

loop_
_atom_site_label
_atom_site_type_symbol
_atom_site_fract_x
_atom_site_fract_y
_atom_site_fract_z
1	C	0.102839	0.445161	0.009603
2	N	0.13382	0.437819	0.009229
3	C	0.172213	0.468781	0.009566
4	N	0.179397	0.50699	0.010172
5	C	0.148659	0.514455	0.010537
6	N	0.11064	0.48349	0.0102
7	N	0.323529	0.909121	0.009232
8	C	0.316071	0.870714	0.009569
9	N	0.323502	0.437807	0.010309
10	C	0.316063	0.468766	0.009912
11	C	0.102824	0.681096	0.009898
12	N	0.133801	0.719425	0.010314
13	C	0.172198	0.726866	0.009917
14	N	0.17939	0.695847	0.009256
15	C	0.14866	0.65764	0.008869
16	N	0.110637	0.650579	0.009246
17	C	0.258084	0.462851	0.051182
18	N	0.223276	0.463479	0.04902
19	C	0.205012	0.462603	0.342521
20	C	0.224257	0.462815	0.301686
21	N	0.259711	0.463479	0.303848
22	C	0.277086	0.462588	0.343687
23	H	0.270869	0.4645	0.082094
24	H	0.213196	0.464593	0.270776
25	C	0.224298	0.784838	0.051195
26	N	0.259734	0.819648	0.049028
27	C	0.277089	0.837918	0.342521
28	C	0.258032	0.818695	0.301691
29	N	0.223242	0.78324	0.303871
30	C	0.204988	0.765849	0.343711
31	H	0.213186	0.772044	0.082109
32	H	0.270857	0.829763	0.270776
33	C	0.15495	0.605827	0.301365
34	N	0.154286	0.570429	0.303876
35	C	0.155048	0.55336	0.010632
36	C	0.154952	0.572559	0.051341
37	N	0.154242	0.60727	0.048822
38	C	0.155063	0.625134	0.008736
39	H	0.153309	0.616814	0.270349
40	H	0.153137	0.559854	0.082351
41	N	0.04173	0.405823	0.048891
42	C	0.062554	0.415035	0.342565
43	C	0.040413	0.403959	0.301737
44	H	0.054113	0.413515	0.270902
45	C	0.040374	0.65997	0.051171
46	N	0.041763	0.659152	0.304017
47	C	0.062533	0.670936	0.343707
48	H	0.054107	0.664484	0.082039
49	C	0.102839	0.445161	0.342936
50	N	0.13382	0.437819	0.342562
51	C	0.172213	0.468781	0.342898
52	N	0.179397	0.50699	0.343507
53	C	0.148659	0.514455	0.34387
54	N	0.11064	0.48349	0.343534
55	N	0.323529	0.909121	0.342565
56	C	0.316071	0.870714	0.342902
57	N	0.323502	0.437807	0.343643
58	C	0.316063	0.468766	0.343245
59	C	0.102824	0.681096	0.343231
60	N	0.133801	0.719425	0.343649
61	C	0.172198	0.726866	0.343252
62	N	0.17939	0.695847	0.342589
63	C	0.14866	0.65764	0.342202
64	N	0.110637	0.650579	0.342579
65	C	0.258084	0.462851	0.384515
66	N	0.223276	0.463479	0.382354
67	C	0.205012	0.462603	0.675853
68	C	0.224257	0.462815	0.635021
69	N	0.259711	0.463479	0.637183
70	C	0.277086	0.462588	0.677019
71	H	0.270869	0.4645	0.415427
72	H	0.213196	0.464593	0.604109
73	C	0.224298	0.784838	0.384529
74	N	0.259734	0.819648	0.382361
75	C	0.277089	0.837918	0.675856
76	C	0.258032	0.818695	0.635025
77	N	0.223242	0.78324	0.637203
78	C	0.204988	0.765849	0.677046
79	H	0.213186	0.772044	0.415441
80	H	0.270857	0.829763	0.604109
81	C	0.15495	0.605827	0.634698
82	N	0.154286	0.570429	0.63721
83	C	0.155048	0.55336	0.343965
84	C	0.154952	0.572559	0.384675
85	N	0.154242	0.60727	0.382157
86	C	0.155063	0.625134	0.342069
87	H	0.153309	0.616814	0.603685
88	H	0.153137	0.559854	0.415685
89	N	0.04173	0.405823	0.382225
90	C	0.062554	0.415035	0.675897
91	C	0.040413	0.403959	0.635069
92	H	0.054113	0.413515	0.604235
93	C	0.040374	0.65997	0.384505
94	N	0.041763	0.659152	0.637349
95	C	0.062533	0.670936	0.677042
96	H	0.054107	0.664484	0.415373
97	C	0.102839	0.445161	0.676271
98	N	0.13382	0.437819	0.675897
99	C	0.172213	0.468781	0.67623
100	N	0.179397	0.50699	0.676839
101	C	0.148659	0.514455	0.677206
102	N	0.11064	0.48349	0.676866
103	N	0.323529	0.909121	0.675901
104	C	0.316071	0.870714	0.676237
105	N	0.323502	0.437807	0.676975
106	C	0.316063	0.468766	0.67658
107	C	0.102824	0.681096	0.676567
108	N	0.133801	0.719425	0.676981
109	C	0.172198	0.726866	0.676584
110	N	0.17939	0.695847	0.675921
111	C	0.14866	0.65764	0.675537
112	N	0.110637	0.650579	0.675914
113	C	0.258084	0.462851	0.71785
114	N	0.223276	0.463479	0.715686
115	C	0.205012	0.462603	0.009188
116	C	0.224257	0.462815	0.968353
117	N	0.259711	0.463479	0.970515
118	C	0.277086	0.462588	0.010352
119	H	0.270869	0.4645	0.748762
120	H	0.213196	0.464593	0.937445
121	C	0.224298	0.784838	0.717864
122	N	0.259734	0.819648	0.715696
123	C	0.277089	0.837918	0.009188
124	C	0.258032	0.818695	0.96836
125	N	0.223242	0.78324	0.970538
126	C	0.204988	0.765849	0.010378
127	H	0.213186	0.772044	0.748776
128	H	0.270857	0.829763	0.937445
129	C	0.15495	0.605827	0.968034
130	N	0.154286	0.570429	0.970542
131	C	0.155048	0.55336	0.677297
132	C	0.154952	0.572559	0.71801
133	N	0.154242	0.60727	0.715489
134	C	0.155063	0.625134	0.675401
135	H	0.153309	0.616814	0.937017
136	H	0.153137	0.559854	0.749017
137	N	0.04173	0.405823	0.715557
138	C	0.062554	0.415035	0.009232
139	C	0.040413	0.403959	0.968404
140	H	0.054113	0.413515	0.93757
141	C	0.040374	0.65997	0.717837
142	N	0.041763	0.659152	0.970684
143	C	0.062533	0.670936	0.010375
144	H	0.054107	0.664484	0.748708
145	C	0.597772	0.681051	0.009589
146	N	0.605151	0.719389	0.009239
147	C	0.574209	0.726854	0.009583
148	N	0.535989	0.69585	0.010174
149	C	0.52849	0.657634	0.010517
150	N	0.559434	0.650549	0.010166
151	C	0.361864	0.940086	0.009589
152	N	0.347081	0.863509	0.010171
153	C	0.385291	0.894226	0.010523
154	N	0.392373	0.932256	0.010177
155	C	0.938787	0.599052	0.0096
156	N	0.907807	0.606398	0.00926
157	C	0.86941	0.575436	0.009586
158	N	0.862226	0.537226	0.010168
159	C	0.892961	0.529758	0.01051
160	N	0.930984	0.560724	0.010173
161	C	0.443849	0.363121	0.009586
162	N	0.436501	0.324795	0.009246
163	C	0.46746	0.317357	0.009586
164	N	0.505671	0.348382	0.010168
165	C	0.513141	0.386585	0.010502
166	N	0.482178	0.393644	0.010154
167	C	0.679743	0.104081	0.009596
168	N	0.718077	0.135044	0.009243
169	C	0.725535	0.173448	0.009576
170	N	0.694529	0.180659	0.010164
171	C	0.656316	0.149939	0.010514
172	N	0.649235	0.11191	0.010173
173	C	0.443836	0.104108	0.009907
174	N	0.436481	0.135083	0.010306
175	C	0.467436	0.173482	0.009909
176	N	0.505646	0.180675	0.009253
177	C	0.513125	0.149947	0.008879
178	N	0.482169	0.111922	0.009266
179	C	0.679791	0.599058	0.009904
180	N	0.718118	0.606407	0.010314
181	C	0.725557	0.575448	0.009914
182	N	0.694536	0.537238	0.009253
183	C	0.656331	0.529764	0.008872
184	N	0.649269	0.560727	0.009253
185	C	0.938757	0.363106	0.009865
186	N	0.907788	0.324777	0.010274
187	C	0.869387	0.317327	0.009927
188	N	0.862187	0.34834	0.009294
189	C	0.892911	0.386546	0.008899
190	N	0.930938	0.39362	0.009236
191	C	0.597759	0.940086	0.009901
192	N	0.605137	0.909127	0.010287
193	C	0.574198	0.87072	0.009908
194	N	0.53598	0.863503	0.009263
195	C	0.528477	0.894214	0.008899
196	N	0.559419	0.932247	0.009273
197	C	0.361829	0.445158	0.009907
198	N	0.347082	0.506975	0.009253
199	C	0.385287	0.514449	0.008876
200	N	0.392351	0.48349	0.009263
201	C	0.58004	0.818617	0.051154
202	N	0.579429	0.783189	0.049001
203	C	0.58042	0.76584	0.342521
204	C	0.58026	0.784901	0.301687
205	N	0.579587	0.819687	0.303843
206	C	0.580415	0.837948	0.343663
207	H	0.578311	0.829712	0.082062
208	H	0.578528	0.772083	0.270775
209	C	0.78353	0.581329	0.051197
210	N	0.818338	0.580702	0.049036
211	C	0.836604	0.581601	0.342531
212	C	0.817378	0.581422	0.301698
213	N	0.781925	0.580762	0.303872
214	C	0.764535	0.581637	0.343711
215	H	0.770738	0.57966	0.08211
216	H	0.828444	0.57966	0.270785
217	C	0.461531	0.22555	0.051188
218	N	0.462162	0.260988	0.049032
219	C	0.461282	0.27838	0.342538
220	C	0.461487	0.259347	0.301701
221	N	0.462148	0.224554	0.303856
222	C	0.46126	0.206284	0.34369
223	H	0.463186	0.214414	0.082098
224	H	0.463263	0.272186	0.270792
225	C	0.817309	0.259338	0.051199
226	N	0.781886	0.224519	0.049021
227	C	0.764519	0.206228	0.342521
228	C	0.783556	0.225504	0.301703
229	N	0.818339	0.260964	0.303879
230	C	0.836605	0.278343	0.343717
231	H	0.82842	0.272127	0.082115
232	H	0.770727	0.214453	0.270787
233	C	0.437111	0.572529	0.301382
234	N	0.472507	0.607264	0.30387
235	C	0.489577	0.625143	0.010604
236	C	0.470375	0.605866	0.051322
237	N	0.435667	0.570444	0.04882
238	C	0.417781	0.553357	0.008757
239	H	0.426131	0.559878	0.270372
240	H	0.48308	0.61677	0.082329
241	C	0.470361	0.887894	0.301376
242	N	0.43563	0.88856	0.303887
243	C	0.417777	0.887798	0.010629
244	C	0.43711	0.887944	0.051331
245	N	0.472527	0.888649	0.048817
246	C	0.489558	0.887777	0.00874
247	H	0.482988	0.889531	0.270361
248	H	0.426239	0.889793	0.08234
249	C	0.886672	0.438386	0.301362
250	N	0.887352	0.47379	0.303861
251	C	0.886568	0.490853	0.010611
252	C	0.886627	0.471643	0.051325
253	N	0.887315	0.436919	0.048811
254	C	0.886496	0.419044	0.008733
255	H	0.888333	0.427402	0.270352
256	H	0.88843	0.484344	0.082334
257	C	0.604513	0.471675	0.30135
258	N	0.569116	0.436943	0.30385
259	C	0.552048	0.419101	0.010601
260	C	0.571248	0.438383	0.051316
261	N	0.605957	0.473802	0.048807
262	C	0.623823	0.490856	0.008726
263	H	0.615504	0.484314	0.270338
264	H	0.558541	0.427483	0.082324
265	C	0.571209	0.156216	0.301384
266	N	0.605946	0.155556	0.30387
267	C	0.62382	0.156354	0.010604
268	C	0.60454	0.156268	0.051323
269	N	0.569117	0.155554	0.048822
270	C	0.552034	0.156364	0.00876
271	H	0.558564	0.154555	0.270374
272	H	0.615441	0.15446	0.082328
273	C	0.001199	0.384512	0.05108
274	N	0.999881	0.384826	0.303943
275	C	0.979047	0.37328	0.343598
276	H	0.987465	0.380193	0.081921
277	C	0.658583	0.640315	0.051173
278	N	0.637252	0.659513	0.048953
279	C	0.627882	0.67085	0.342545
280	C	0.63878	0.659615	0.301723
281	N	0.65793	0.638239	0.304007
282	C	0.66963	0.629187	0.343721
283	H	0.66304	0.631048	0.08204
284	H	0.629093	0.663606	0.270898
285	C	0.402601	0.041635	0.051177
286	N	0.383407	0.001105	0.048956
287	C	0.372062	0.980398	0.342548
288	C	0.383281	0.002533	0.301728
289	N	0.404649	0.04306	0.304011
290	C	0.413711	0.063812	0.343724
291	H	0.411872	0.055358	0.082043
292	H	0.379285	0.988855	0.270901
293	N	0.999845	0.638639	0.04896
294	C	0.979084	0.629175	0.342582
295	C	0.001234	0.639995	0.301759
296	H	0.987552	0.630254	0.270943
297	C	0.383011	0.403872	0.05116
298	N	0.404327	0.384661	0.04891
299	C	0.413728	0.373289	0.342535
300	C	0.402858	0.384614	0.301742
301	N	0.383713	0.405996	0.304012
302	C	0.371988	0.415026	0.343714
303	H	0.378556	0.413129	0.082034
304	H	0.412555	0.380647	0.270911
305	C	0.638927	0.002521	0.051168
306	N	0.658137	0.043051	0.048957
307	C	0.669545	0.063772	0.342559
308	C	0.658389	0.041654	0.30172
309	N	0.637002	0.001126	0.303964
310	C	0.62787	0.980392	0.343683
311	H	0.629613	0.988783	0.082021
312	H	0.662448	0.055351	0.270896
313	C	0.597772	0.681051	0.342922
314	N	0.605151	0.719389	0.342572
315	C	0.574209	0.726854	0.342915
316	N	0.535989	0.69585	0.343507
317	C	0.52849	0.657634	0.34385
318	N	0.559434	0.650549	0.3435
319	C	0.361864	0.940086	0.342919
320	N	0.347081	0.863509	0.343503
321	C	0.385291	0.894226	0.343857
322	N	0.392373	0.932256	0.34351
323	C	0.938787	0.599052	0.342932
324	N	0.907807	0.606398	0.342593
325	C	0.86941	0.575436	0.342919
326	N	0.862226	0.537226	0.343503
327	C	0.892961	0.529758	0.343843
328	N	0.930984	0.560724	0.343507
329	C	0.443849	0.363121	0.342919
330	N	0.436501	0.324795	0.342579
331	C	0.46746	0.317357	0.342919
332	N	0.505671	0.348382	0.343503
333	C	0.513141	0.386585	0.343836
334	N	0.482178	0.393644	0.343486
335	C	0.679743	0.104081	0.342929
336	N	0.718077	0.135044	0.342576
337	C	0.725535	0.173448	0.342909
338	N	0.694529	0.180659	0.343496
339	C	0.656316	0.149939	0.343847
340	N	0.649235	0.11191	0.343507
341	C	0.443836	0.104108	0.343242
342	N	0.436481	0.135083	0.343639
343	C	0.467436	0.173482	0.343242
344	N	0.505646	0.180675	0.342586
345	C	0.513125	0.149947	0.342208
346	N	0.482169	0.111922	0.342599
347	C	0.679791	0.599058	0.343238
348	N	0.718118	0.606407	0.343646
349	C	0.725557	0.575448	0.343248
350	N	0.694536	0.537238	0.342586
351	C	0.656331	0.529764	0.342205
352	N	0.649269	0.560727	0.342586
353	C	0.938757	0.363106	0.343197
354	N	0.907788	0.324777	0.343609
355	C	0.869387	0.317327	0.343262
356	N	0.862187	0.34834	0.342627
357	C	0.892911	0.386546	0.342232
358	N	0.930938	0.39362	0.342569
359	C	0.597759	0.940086	0.343235
360	N	0.605137	0.909127	0.343622
361	C	0.574198	0.87072	0.343242
362	N	0.53598	0.863503	0.342596
363	C	0.528477	0.894214	0.342232
364	N	0.559419	0.932247	0.342606
365	C	0.361829	0.445158	0.343242
366	N	0.347082	0.506975	0.342586
367	C	0.385287	0.514449	0.342208
368	N	0.392351	0.48349	0.342596
369	C	0.58004	0.818617	0.384488
370	N	0.579429	0.783189	0.382333
371	C	0.58042	0.76584	0.675853
372	C	0.58026	0.784901	0.635021
373	N	0.579587	0.819687	0.637176
374	C	0.580415	0.837948	0.676995
375	H	0.578311	0.829712	0.415396
376	H	0.578528	0.772083	0.604109
377	C	0.78353	0.581329	0.384532
378	N	0.818338	0.580702	0.382371
379	C	0.836604	0.581601	0.675867
380	C	0.817378	0.581422	0.635031
381	N	0.781925	0.580762	0.637206
382	C	0.764535	0.581637	0.677042
383	H	0.770738	0.57966	0.415444
384	H	0.828444	0.57966	0.60412
385	C	0.461531	0.22555	0.384522
386	N	0.462162	0.260988	0.382367
387	C	0.461282	0.27838	0.675873
388	C	0.461487	0.259347	0.635035
389	N	0.462148	0.224554	0.637189
390	C	0.46126	0.206284	0.677022
391	H	0.463186	0.214414	0.41543
392	H	0.463263	0.272186	0.604126
393	C	0.817309	0.259338	0.384532
394	N	0.781886	0.224519	0.382354
395	C	0.764519	0.206228	0.675856
396	C	0.783556	0.225504	0.635035
397	N	0.818339	0.260964	0.637213
398	C	0.836605	0.278343	0.677049
399	H	0.82842	0.272127	0.415447
400	H	0.770727	0.214453	0.60412
401	C	0.437111	0.572529	0.634715
402	N	0.472507	0.607264	0.637203
403	C	0.489577	0.625143	0.343938
404	C	0.470375	0.605866	0.384654
405	N	0.435667	0.570444	0.382153
406	C	0.417781	0.553357	0.34209
407	H	0.426131	0.559878	0.603705
408	H	0.48308	0.61677	0.415661
409	C	0.470361	0.887894	0.634709
410	N	0.43563	0.88856	0.63722
411	C	0.417777	0.887798	0.343962
412	C	0.43711	0.887944	0.384665
413	N	0.472527	0.888649	0.38215
414	C	0.489558	0.887777	0.342073
415	H	0.482988	0.889531	0.603695
416	H	0.426239	0.889793	0.415675
417	C	0.886672	0.438386	0.634695
418	N	0.887352	0.47379	0.637196
419	C	0.886568	0.490853	0.343945
420	C	0.886627	0.471643	0.384658
421	N	0.887315	0.436919	0.382143
422	C	0.886496	0.419044	0.342062
423	H	0.888333	0.427402	0.603685
424	H	0.88843	0.484344	0.415668
425	C	0.604513	0.471675	0.634685
426	N	0.569116	0.436943	0.637183
427	C	0.552048	0.419101	0.343935
428	C	0.571248	0.438383	0.384651
429	N	0.605957	0.473802	0.38214
430	C	0.623823	0.490856	0.342059
431	H	0.615504	0.484314	0.603671
432	H	0.558541	0.427483	0.415658
433	C	0.571209	0.156216	0.634719
434	N	0.605946	0.155556	0.637203
435	C	0.62382	0.156354	0.343938
436	C	0.60454	0.156268	0.384654
437	N	0.569117	0.155554	0.382157
438	C	0.552034	0.156364	0.342093
439	H	0.558564	0.154555	0.603708
440	H	0.615441	0.15446	0.415661
441	C	0.001199	0.384512	0.384413
442	N	0.999881	0.384826	0.637278
443	C	0.979047	0.37328	0.676934
444	H	0.987465	0.380193	0.415254
445	C	0.658583	0.640315	0.384508
446	N	0.637252	0.659513	0.382286
447	C	0.627882	0.67085	0.67588
448	C	0.63878	0.659615	0.635055
449	N	0.65793	0.638239	0.637339
450	C	0.66963	0.629187	0.677053
451	H	0.66304	0.631048	0.415373
452	H	0.629093	0.663606	0.604232
453	C	0.402601	0.041635	0.384512
454	N	0.383407	0.001105	0.382289
455	C	0.372062	0.980398	0.675884
456	C	0.383281	0.002533	0.635062
457	N	0.404649	0.04306	0.637346
458	C	0.413711	0.063812	0.677059
459	H	0.411872	0.055358	0.415376
460	H	0.379285	0.988855	0.604235
461	N	0.999845	0.638639	0.382293
462	C	0.979084	0.629175	0.675914
463	C	0.001234	0.639995	0.635093
464	H	0.987552	0.630254	0.604276
465	C	0.383011	0.403872	0.384495
466	N	0.404327	0.384661	0.382245
467	C	0.413728	0.373289	0.675867
468	C	0.402858	0.384614	0.635076
469	N	0.383713	0.405996	0.637346
470	C	0.371988	0.415026	0.677049
471	H	0.378556	0.413129	0.415366
472	H	0.412555	0.380647	0.604245
473	C	0.638927	0.002521	0.384502
474	N	0.658137	0.043051	0.382289
475	C	0.669545	0.063772	0.675894
476	C	0.658389	0.041654	0.635055
477	N	0.637002	0.001126	0.637298
478	C	0.62787	0.980392	0.677019
479	H	0.629613	0.988783	0.415356
480	H	0.662448	0.055351	0.604228
481	C	0.597772	0.681051	0.676254
482	N	0.605151	0.719389	0.675907
483	C	0.574209	0.726854	0.676247
484	N	0.535989	0.69585	0.676842
485	C	0.52849	0.657634	0.677185
486	N	0.559434	0.650549	0.676835
487	C	0.361864	0.940086	0.676254
488	N	0.347081	0.863509	0.676839
489	C	0.385291	0.894226	0.677192
490	N	0.392373	0.932256	0.676845
491	C	0.938787	0.599052	0.676268
492	N	0.907807	0.606398	0.675928
493	C	0.86941	0.575436	0.676254
494	N	0.862226	0.537226	0.676835
495	C	0.892961	0.529758	0.677178
496	N	0.930984	0.560724	0.676842
497	C	0.443849	0.363121	0.676251
498	N	0.436501	0.324795	0.675914
499	C	0.46746	0.317357	0.676251
500	N	0.505671	0.348382	0.676835
501	C	0.513141	0.386585	0.677168
502	N	0.482178	0.393644	0.676822
503	C	0.679743	0.104081	0.676264
504	N	0.718077	0.135044	0.675907
505	C	0.725535	0.173448	0.67624
506	N	0.694529	0.180659	0.676832
507	C	0.656316	0.149939	0.677182
508	N	0.649235	0.11191	0.676842
509	C	0.443836	0.104108	0.676573
510	N	0.436481	0.135083	0.676975
511	C	0.467436	0.173482	0.676577
512	N	0.505646	0.180675	0.675921
513	C	0.513125	0.149947	0.675544
514	N	0.482169	0.111922	0.675935
515	C	0.679791	0.599058	0.67657
516	N	0.718118	0.606407	0.676981
517	C	0.725557	0.575448	0.67658
518	N	0.694536	0.537238	0.675918
519	C	0.656331	0.529764	0.675537
520	N	0.649269	0.560727	0.675921
521	C	0.938757	0.363106	0.676533
522	N	0.907788	0.324777	0.676941
523	C	0.869387	0.317327	0.676594
524	N	0.862187	0.34834	0.675958
525	C	0.892911	0.386546	0.675564
526	N	0.930938	0.39362	0.675901
527	C	0.597759	0.940086	0.676567
528	N	0.605137	0.909127	0.676954
529	C	0.574198	0.87072	0.676573
530	N	0.53598	0.863503	0.675931
531	C	0.528477	0.894214	0.675568
532	N	0.559419	0.932247	0.675938
533	C	0.361829	0.445158	0.676573
534	N	0.347082	0.506975	0.675921
535	C	0.385287	0.514449	0.675544
536	N	0.392351	0.48349	0.675931
537	C	0.58004	0.818617	0.71782
538	N	0.579429	0.783189	0.715669
539	C	0.58042	0.76584	0.009188
540	C	0.58026	0.784901	0.968353
541	N	0.579587	0.819687	0.970511
542	C	0.580415	0.837948	0.010328
543	H	0.578311	0.829712	0.748728
544	H	0.578528	0.772083	0.937441
545	C	0.78353	0.581329	0.717864
546	N	0.818338	0.580702	0.715703
547	C	0.836604	0.581601	0.009199
548	C	0.817378	0.581422	0.968367
549	N	0.781925	0.580762	0.970538
550	C	0.764535	0.581637	0.010376
551	H	0.770738	0.57966	0.748776
552	H	0.828444	0.57966	0.937452
553	C	0.461531	0.22555	0.717857
554	N	0.462162	0.260988	0.715699
555	C	0.461282	0.27838	0.009205
556	C	0.461487	0.259347	0.968367
557	N	0.462148	0.224554	0.970525
558	C	0.46126	0.206284	0.010356
559	H	0.463186	0.214414	0.748766
560	H	0.463263	0.272186	0.937458
561	C	0.817309	0.259338	0.717867
562	N	0.781886	0.224519	0.715689
563	C	0.764519	0.206228	0.009192
564	C	0.783556	0.225504	0.96837
565	N	0.818339	0.260964	0.970545
566	C	0.836605	0.278343	0.010384
567	H	0.82842	0.272127	0.748783
568	H	0.770727	0.214453	0.937455
569	C	0.437111	0.572529	0.968051
570	N	0.472507	0.607264	0.970538
571	C	0.489577	0.625143	0.67727
572	C	0.470375	0.605866	0.71799
573	N	0.435667	0.570444	0.715489
574	C	0.417781	0.553357	0.675425
575	H	0.426131	0.559878	0.93704
576	H	0.48308	0.61677	0.748997
577	C	0.470361	0.887894	0.968044
578	N	0.43563	0.88856	0.970555
579	C	0.417777	0.887798	0.677297
580	C	0.43711	0.887944	0.718
581	N	0.472527	0.888649	0.715485
582	C	0.489558	0.887777	0.675408
583	H	0.482988	0.889531	0.937027
584	H	0.426239	0.889793	0.749007
585	C	0.886672	0.438386	0.96803
586	N	0.887352	0.47379	0.970528
587	C	0.886568	0.490853	0.677277
588	C	0.886627	0.471643	0.717993
589	N	0.887315	0.436919	0.715478
590	C	0.886496	0.419044	0.675398
591	H	0.888333	0.427402	0.93702
592	H	0.88843	0.484344	0.749
593	C	0.604513	0.471675	0.968017
594	N	0.569116	0.436943	0.970518
595	C	0.552048	0.419101	0.677267
596	C	0.571248	0.438383	0.717983
597	N	0.605957	0.473802	0.715475
598	C	0.623823	0.490856	0.675391
599	H	0.615504	0.484314	0.937006
600	H	0.558541	0.427483	0.74899
601	C	0.571209	0.156216	0.968051
602	N	0.605946	0.155556	0.970538
603	C	0.62382	0.156354	0.67727
604	C	0.60454	0.156268	0.71799
605	N	0.569117	0.155554	0.715489
606	C	0.552034	0.156364	0.675428
607	H	0.558564	0.154555	0.93704
608	H	0.615441	0.15446	0.748997
609	C	0.001199	0.384512	0.717748
610	N	0.999881	0.384826	0.97061
611	C	0.979047	0.37328	0.010266
612	H	0.987465	0.380193	0.748589
613	C	0.658583	0.640315	0.71784
614	N	0.637252	0.659513	0.715621
615	C	0.627882	0.67085	0.009212
616	C	0.63878	0.659615	0.968391
617	N	0.65793	0.638239	0.970674
618	C	0.66963	0.629187	0.010386
619	H	0.66304	0.631048	0.748708
620	H	0.629093	0.663606	0.937567
621	C	0.402601	0.041635	0.717844
622	N	0.383407	0.001105	0.715624
623	C	0.372062	0.980398	0.009216
624	C	0.383281	0.002533	0.968394
625	N	0.404649	0.04306	0.970678
626	C	0.413711	0.063812	0.010391
627	H	0.411872	0.055358	0.748711
628	H	0.379285	0.988855	0.937567
629	N	0.999845	0.638639	0.715628
630	C	0.979084	0.629175	0.009249
631	C	0.001234	0.639995	0.968425
632	H	0.987552	0.630254	0.937611
633	C	0.383011	0.403872	0.717827
634	N	0.404327	0.384661	0.715577
635	C	0.413728	0.373289	0.009202
636	C	0.402858	0.384614	0.968408
637	N	0.383713	0.405996	0.970678
638	C	0.371988	0.415026	0.010381
639	H	0.378556	0.413129	0.748701
640	H	0.412555	0.380647	0.937577
641	C	0.638927	0.002521	0.717837
642	N	0.658137	0.043051	0.715624
643	C	0.669545	0.063772	0.009226
644	C	0.658389	0.041654	0.968387
645	N	0.637002	0.001126	0.97063
646	C	0.62787	0.980392	0.01035
647	H	0.629613	0.988783	0.748688
648	H	0.662448	0.055351	0.937564
